 *************************************************
 *                 TOYCODE-1.0                   *
 *                                               *
 *      A MD PLATFORM FOR TESTING ENHANCED       *
 *      SAMPLING ALGORITHMS.                     *
 *                                               *
 *      DEVELOPED BY VENKAT KAPIL                *
 *      CONTACT : venkat@iitk.ac.in              *
 *                                               *
 *      COPYRIGHT (C) 2014 VENKAT KAPIL          *
 *      SOME RIGHTS RESERVED.                    *
 *                                               *
 !************************************************

 MOLECULAR DYNAMICS PARAMETERS:
TEMPERATURE                            :            0.950E-03
MASS                                   :            0.911E+05
NUMBER OF DIMENSIONS                   :                  2
NUMBER OF WELLS                        :                  3
ENERGY BARRIER                         :            0.143E-01
TIMESTEP                               :            0.700E+01
MD STEPS                               :               1000
THERMOSTAT                             :                  T

 METADYNAMICS PARAMETERS:
NUMBER OF DIMENSIONS                   :                  2
CV COMPONENTS                          :                  1         2
WIDTH OF GAUSSIAN                      :            0.500E-02
INITIAL HEIGHT OF GAUSSIAN             :            0.100E-02
METADYNAMICS STEPS                     :            4000000
MIN AND MAX METADYNAMICS STEPS         :                100       100

 FORCEFIELD PARAMETERS:
 MINIMUM POTENTIAL:   2.8501757608385851E-002
 COEFFICIENT:   139.29847028737356     
 LOCATION OF WELL:   0.0000000000000000        0.0000000000000000     

 MINIMUM POTENTIAL:   2.8501757608385851E-002
 COEFFICIENT:   139.29847028737356     
 LOCATION OF WELL:  0.21605633600215537        0.0000000000000000     

 MINIMUM POTENTIAL:   2.8501757608385851E-002
 COEFFICIENT:   139.29847028737356     
 LOCATION OF WELL:   0.0000000000000000       0.17958094280649739     

 MINIMUM POTENTIAL:  0.28501757608385853     
 COEFFICIENT:  0.13929847028737358     
 LOCATION OF WELL:  0.10802816800107769        8.9790471403248695E-002

ITERATION                              :                  0
TIME                                   :            0.000E+00
POSITION                               :            0.000E+00   0.000E+00
VELOCITY                               :            0.139E-03   0.398E-04
ACCLERATION                            :            0.122E-06   0.253E-06
KINETIC ENERGY                         :            0.950E-03
POTENTIAL ENERGY                       :           -0.313E+00
TOTAL ENERGY                           :           -0.312E+00
INST. TEMPERATURE                      :            0.300E+03

ITERATION                              :                  1
TIME                                   :            0.700E+01
POSITION                               :            0.975E-03   0.285E-03
VELOCITY                               :            0.139E-03   0.415E-04
ACCLERATION                            :            0.370E-07   0.230E-06
KINETIC ENERGY                         :            0.963E-03
POTENTIAL ENERGY                       :           -0.313E+00
TOTAL ENERGY                           :           -0.312E+00
INST. TEMPERATURE                      :            0.304E+03

ITERATION                              :                  2
TIME                                   :            0.140E+02
POSITION                               :            0.195E-02   0.581E-03
VELOCITY                               :            0.139E-03   0.430E-04
ACCLERATION                            :           -0.483E-07   0.207E-06
KINETIC ENERGY                         :            0.969E-03
POTENTIAL ENERGY                       :           -0.313E+00
TOTAL ENERGY                           :           -0.312E+00
INST. TEMPERATURE                      :            0.306E+03

ITERATION                              :                  3
TIME                                   :            0.210E+02
POSITION                               :            0.293E-02   0.888E-03
VELOCITY                               :            0.139E-03   0.444E-04
ACCLERATION                            :           -0.133E-06   0.182E-06
KINETIC ENERGY                         :            0.966E-03
POTENTIAL ENERGY                       :           -0.313E+00
TOTAL ENERGY                           :           -0.312E+00
INST. TEMPERATURE                      :            0.305E+03

ITERATION                              :                  4
TIME                                   :            0.280E+02
POSITION                               :            0.389E-02   0.120E-02
VELOCITY                               :            0.137E-03   0.456E-04
ACCLERATION                            :           -0.217E-06   0.157E-06
KINETIC ENERGY                         :            0.956E-03
POTENTIAL ENERGY                       :           -0.313E+00
TOTAL ENERGY                           :           -0.312E+00
INST. TEMPERATURE                      :            0.302E+03

ITERATION                              :                  5
TIME                                   :            0.350E+02
POSITION                               :            0.485E-02   0.153E-02
VELOCITY                               :            0.136E-03   0.466E-04
ACCLERATION                            :           -0.300E-06   0.131E-06
KINETIC ENERGY                         :            0.937E-03
POTENTIAL ENERGY                       :           -0.313E+00
TOTAL ENERGY                           :           -0.312E+00
INST. TEMPERATURE                      :            0.296E+03

ITERATION                              :                  6
TIME                                   :            0.420E+02
POSITION                               :            0.579E-02   0.186E-02
VELOCITY                               :            0.133E-03   0.474E-04
ACCLERATION                            :           -0.381E-06   0.105E-06
KINETIC ENERGY                         :            0.912E-03
POTENTIAL ENERGY                       :           -0.313E+00
TOTAL ENERGY                           :           -0.312E+00
INST. TEMPERATURE                      :            0.288E+03

ITERATION                              :                  7
TIME                                   :            0.490E+02
POSITION                               :            0.672E-02   0.219E-02
VELOCITY                               :            0.130E-03   0.481E-04
ACCLERATION                            :           -0.460E-06   0.780E-07
KINETIC ENERGY                         :            0.879E-03
POTENTIAL ENERGY                       :           -0.313E+00
TOTAL ENERGY                           :           -0.312E+00
INST. TEMPERATURE                      :            0.278E+03

ITERATION                              :                  8
TIME                                   :            0.560E+02
POSITION                               :            0.762E-02   0.253E-02
VELOCITY                               :            0.127E-03   0.485E-04
ACCLERATION                            :           -0.536E-06   0.513E-07
KINETIC ENERGY                         :            0.840E-03
POTENTIAL ENERGY                       :           -0.313E+00
TOTAL ENERGY                           :           -0.312E+00
INST. TEMPERATURE                      :            0.265E+03

ITERATION                              :                  9
TIME                                   :            0.630E+02
POSITION                               :            0.849E-02   0.287E-02
VELOCITY                               :            0.123E-03   0.488E-04
ACCLERATION                            :           -0.610E-06   0.245E-07
KINETIC ENERGY                         :            0.796E-03
POTENTIAL ENERGY                       :           -0.313E+00
TOTAL ENERGY                           :           -0.312E+00
INST. TEMPERATURE                      :            0.251E+03

ITERATION                              :                 10
TIME                                   :            0.700E+02
POSITION                               :            0.934E-02   0.321E-02
VELOCITY                               :            0.118E-03   0.489E-04
ACCLERATION                            :           -0.681E-06  -0.219E-08
KINETIC ENERGY                         :            0.746E-03
POTENTIAL ENERGY                       :           -0.313E+00
TOTAL ENERGY                           :           -0.312E+00
INST. TEMPERATURE                      :            0.236E+03

ITERATION                              :                 11
TIME                                   :            0.770E+02
POSITION                               :            0.101E-01   0.355E-02
VELOCITY                               :            0.121E-03  -0.787E-04
ACCLERATION                            :           -0.748E-06  -0.287E-07
KINETIC ENERGY                         :            0.693E-03
POTENTIAL ENERGY                       :           -0.313E+00
TOTAL ENERGY                           :           -0.312E+00
INST. TEMPERATURE                      :            0.219E+03

ITERATION                              :                 12
TIME                                   :            0.840E+02
POSITION                               :            0.110E-01   0.300E-02
VELOCITY                               :            0.116E-03  -0.787E-04
ACCLERATION                            :           -0.817E-06   0.144E-07
KINETIC ENERGY                         :            0.891E-03
POTENTIAL ENERGY                       :           -0.313E+00
TOTAL ENERGY                           :           -0.312E+00
INST. TEMPERATURE                      :            0.281E+03

ITERATION                              :                 13
TIME                                   :            0.910E+02
POSITION                               :            0.118E-01   0.245E-02
VELOCITY                               :            0.110E-03  -0.785E-04
ACCLERATION                            :           -0.881E-06   0.574E-07
KINETIC ENERGY                         :            0.829E-03
POTENTIAL ENERGY                       :           -0.313E+00
TOTAL ENERGY                           :           -0.312E+00
INST. TEMPERATURE                      :            0.262E+03

ITERATION                              :                 14
TIME                                   :            0.980E+02
POSITION                               :            0.125E-01   0.190E-02
VELOCITY                               :            0.103E-03  -0.779E-04
ACCLERATION                            :           -0.941E-06   0.100E-06
KINETIC ENERGY                         :            0.763E-03
POTENTIAL ENERGY                       :           -0.313E+00
TOTAL ENERGY                           :           -0.312E+00
INST. TEMPERATURE                      :            0.241E+03

ITERATION                              :                 15
TIME                                   :            0.105E+03
POSITION                               :            0.132E-01   0.136E-02
VELOCITY                               :            0.965E-04  -0.771E-04
ACCLERATION                            :           -0.997E-06   0.142E-06
KINETIC ENERGY                         :            0.695E-03
POTENTIAL ENERGY                       :           -0.313E+00
TOTAL ENERGY                           :           -0.312E+00
INST. TEMPERATURE                      :            0.219E+03

ITERATION                              :                 16
TIME                                   :            0.112E+03
POSITION                               :            0.139E-01   0.824E-03
VELOCITY                               :            0.894E-04  -0.759E-04
ACCLERATION                            :           -0.105E-05   0.184E-06
KINETIC ENERGY                         :            0.626E-03
POTENTIAL ENERGY                       :           -0.313E+00
TOTAL ENERGY                           :           -0.312E+00
INST. TEMPERATURE                      :            0.198E+03

ITERATION                              :                 17
TIME                                   :            0.119E+03
POSITION                               :            0.145E-01   0.297E-03
VELOCITY                               :            0.819E-04  -0.745E-04
ACCLERATION                            :           -0.110E-05   0.225E-06
KINETIC ENERGY                         :            0.558E-03
POTENTIAL ENERGY                       :           -0.312E+00
TOTAL ENERGY                           :           -0.312E+00
INST. TEMPERATURE                      :            0.176E+03

ITERATION                              :                 18
TIME                                   :            0.126E+03
POSITION                               :            0.150E-01  -0.219E-03
VELOCITY                               :            0.740E-04  -0.728E-04
ACCLERATION                            :           -0.114E-05   0.265E-06
KINETIC ENERGY                         :            0.491E-03
POTENTIAL ENERGY                       :           -0.312E+00
TOTAL ENERGY                           :           -0.312E+00
INST. TEMPERATURE                      :            0.155E+03

ITERATION                              :                 19
TIME                                   :            0.133E+03
POSITION                               :            0.155E-01  -0.722E-03
VELOCITY                               :            0.659E-04  -0.708E-04
ACCLERATION                            :           -0.118E-05   0.304E-06
KINETIC ENERGY                         :            0.426E-03
POTENTIAL ENERGY                       :           -0.312E+00
TOTAL ENERGY                           :           -0.312E+00
INST. TEMPERATURE                      :            0.135E+03

ITERATION                              :                 20
TIME                                   :            0.140E+03
POSITION                               :            0.159E-01  -0.121E-02
VELOCITY                               :            0.576E-04  -0.685E-04
ACCLERATION                            :           -0.121E-05   0.342E-06
KINETIC ENERGY                         :            0.365E-03
POTENTIAL ENERGY                       :           -0.312E+00
TOTAL ENERGY                           :           -0.312E+00
INST. TEMPERATURE                      :            0.115E+03

ITERATION                              :                 21
TIME                                   :            0.147E+03
POSITION                               :            0.163E-01  -0.168E-02
VELOCITY                               :            0.490E-04  -0.660E-04
ACCLERATION                            :           -0.124E-05   0.378E-06
KINETIC ENERGY                         :            0.308E-03
POTENTIAL ENERGY                       :           -0.312E+00
TOTAL ENERGY                           :           -0.312E+00
INST. TEMPERATURE                      :            0.973E+02

ITERATION                              :                 22
TIME                                   :            0.154E+03
POSITION                               :            0.166E-01  -0.213E-02
VELOCITY                               :            0.877E-04   0.115E-03
ACCLERATION                            :           -0.126E-05   0.413E-06
KINETIC ENERGY                         :            0.256E-03
POTENTIAL ENERGY                       :           -0.312E+00
TOTAL ENERGY                           :           -0.312E+00
INST. TEMPERATURE                      :            0.809E+02

ITERATION                              :                 23
TIME                                   :            0.161E+03
POSITION                               :            0.172E-01  -0.132E-02
VELOCITY                               :            0.788E-04   0.117E-03
ACCLERATION                            :           -0.130E-05   0.349E-06
KINETIC ENERGY                         :            0.910E-03
POTENTIAL ENERGY                       :           -0.312E+00
TOTAL ENERGY                           :           -0.311E+00
INST. TEMPERATURE                      :            0.287E+03

ITERATION                              :                 24
TIME                                   :            0.168E+03
POSITION                               :            0.177E-01  -0.491E-03
VELOCITY                               :            0.695E-04   0.120E-03
ACCLERATION                            :           -0.134E-05   0.284E-06
KINETIC ENERGY                         :            0.871E-03
POTENTIAL ENERGY                       :           -0.312E+00
TOTAL ENERGY                           :           -0.311E+00
INST. TEMPERATURE                      :            0.275E+03

ITERATION                              :                 25
TIME                                   :            0.175E+03
POSITION                               :            0.182E-01   0.353E-03
VELOCITY                               :            0.600E-04   0.121E-03
ACCLERATION                            :           -0.138E-05   0.218E-06
KINETIC ENERGY                         :            0.835E-03
POTENTIAL ENERGY                       :           -0.312E+00
TOTAL ENERGY                           :           -0.311E+00
INST. TEMPERATURE                      :            0.264E+03

ITERATION                              :                 26
TIME                                   :            0.182E+03
POSITION                               :            0.186E-01   0.121E-02
VELOCITY                               :            0.502E-04   0.123E-03
ACCLERATION                            :           -0.141E-05   0.152E-06
KINETIC ENERGY                         :            0.800E-03
POTENTIAL ENERGY                       :           -0.312E+00
TOTAL ENERGY                           :           -0.311E+00
INST. TEMPERATURE                      :            0.253E+03

ITERATION                              :                 27
TIME                                   :            0.189E+03
POSITION                               :            0.189E-01   0.207E-02
VELOCITY                               :            0.403E-04   0.123E-03
ACCLERATION                            :           -0.143E-05   0.866E-07
KINETIC ENERGY                         :            0.769E-03
POTENTIAL ENERGY                       :           -0.312E+00
TOTAL ENERGY                           :           -0.311E+00
INST. TEMPERATURE                      :            0.243E+03

ITERATION                              :                 28
TIME                                   :            0.196E+03
POSITION                               :            0.191E-01   0.294E-02
VELOCITY                               :            0.302E-04   0.124E-03
ACCLERATION                            :           -0.145E-05   0.209E-07
KINETIC ENERGY                         :            0.740E-03
POTENTIAL ENERGY                       :           -0.312E+00
TOTAL ENERGY                           :           -0.311E+00
INST. TEMPERATURE                      :            0.234E+03

ITERATION                              :                 29
TIME                                   :            0.203E+03
POSITION                               :            0.193E-01   0.380E-02
VELOCITY                               :            0.200E-04   0.124E-03
ACCLERATION                            :           -0.146E-05  -0.443E-07
KINETIC ENERGY                         :            0.716E-03
POTENTIAL ENERGY                       :           -0.312E+00
TOTAL ENERGY                           :           -0.311E+00
INST. TEMPERATURE                      :            0.226E+03

ITERATION                              :                 30
TIME                                   :            0.210E+03
POSITION                               :            0.194E-01   0.467E-02
VELOCITY                               :            0.977E-05   0.123E-03
ACCLERATION                            :           -0.147E-05  -0.109E-06
KINETIC ENERGY                         :            0.696E-03
POTENTIAL ENERGY                       :           -0.312E+00
TOTAL ENERGY                           :           -0.311E+00
INST. TEMPERATURE                      :            0.220E+03

ITERATION                              :                 31
TIME                                   :            0.217E+03
POSITION                               :            0.194E-01   0.553E-02
VELOCITY                               :           -0.506E-06   0.122E-03
ACCLERATION                            :           -0.147E-05  -0.173E-06
KINETIC ENERGY                         :            0.681E-03
POTENTIAL ENERGY                       :           -0.312E+00
TOTAL ENERGY                           :           -0.311E+00
INST. TEMPERATURE                      :            0.215E+03

ITERATION                              :                 32
TIME                                   :            0.224E+03
POSITION                               :            0.194E-01   0.638E-02
VELOCITY                               :           -0.108E-04   0.121E-03
ACCLERATION                            :           -0.146E-05  -0.235E-06
KINETIC ENERGY                         :            0.670E-03
POTENTIAL ENERGY                       :           -0.312E+00
TOTAL ENERGY                           :           -0.311E+00
INST. TEMPERATURE                      :            0.212E+03

ITERATION                              :                 33
TIME                                   :            0.231E+03
POSITION                               :            0.193E-01   0.722E-02
VELOCITY                               :           -0.233E-04  -0.143E-03
ACCLERATION                            :           -0.146E-05  -0.297E-06
KINETIC ENERGY                         :            0.665E-03
POTENTIAL ENERGY                       :           -0.312E+00
TOTAL ENERGY                           :           -0.311E+00
INST. TEMPERATURE                      :            0.210E+03

ITERATION                              :                 34
TIME                                   :            0.238E+03
POSITION                               :            0.191E-01   0.622E-02
VELOCITY                               :           -0.334E-04  -0.144E-03
ACCLERATION                            :           -0.144E-05  -0.224E-06
KINETIC ENERGY                         :            0.100E-02
POTENTIAL ENERGY                       :           -0.312E+00
TOTAL ENERGY                           :           -0.311E+00
INST. TEMPERATURE                      :            0.316E+03

ITERATION                              :                 35
TIME                                   :            0.245E+03
POSITION                               :            0.188E-01   0.520E-02
VELOCITY                               :           -0.435E-04  -0.146E-03
ACCLERATION                            :           -0.142E-05  -0.149E-06
KINETIC ENERGY                         :            0.105E-02
POTENTIAL ENERGY                       :           -0.312E+00
TOTAL ENERGY                           :           -0.311E+00
INST. TEMPERATURE                      :            0.332E+03

ITERATION                              :                 36
TIME                                   :            0.252E+03
POSITION                               :            0.185E-01   0.418E-02
VELOCITY                               :           -0.534E-04  -0.146E-03
ACCLERATION                            :           -0.140E-05  -0.728E-07
KINETIC ENERGY                         :            0.111E-02
POTENTIAL ENERGY                       :           -0.312E+00
TOTAL ENERGY                           :           -0.311E+00
INST. TEMPERATURE                      :            0.349E+03

ITERATION                              :                 37
TIME                                   :            0.259E+03
POSITION                               :            0.181E-01   0.315E-02
VELOCITY                               :           -0.631E-04  -0.147E-03
ACCLERATION                            :           -0.137E-05   0.449E-08
KINETIC ENERGY                         :            0.116E-02
POTENTIAL ENERGY                       :           -0.312E+00
TOTAL ENERGY                           :           -0.311E+00
INST. TEMPERATURE                      :            0.367E+03

ITERATION                              :                 38
TIME                                   :            0.266E+03
POSITION                               :            0.176E-01   0.212E-02
VELOCITY                               :           -0.725E-04  -0.146E-03
ACCLERATION                            :           -0.134E-05   0.826E-07
KINETIC ENERGY                         :            0.122E-02
POTENTIAL ENERGY                       :           -0.312E+00
TOTAL ENERGY                           :           -0.311E+00
INST. TEMPERATURE                      :            0.384E+03

ITERATION                              :                 39
TIME                                   :            0.273E+03
POSITION                               :            0.171E-01   0.110E-02
VELOCITY                               :           -0.818E-04  -0.146E-03
ACCLERATION                            :           -0.130E-05   0.161E-06
KINETIC ENERGY                         :            0.127E-02
POTENTIAL ENERGY                       :           -0.312E+00
TOTAL ENERGY                           :           -0.311E+00
INST. TEMPERATURE                      :            0.401E+03

ITERATION                              :                 40
TIME                                   :            0.280E+03
POSITION                               :            0.165E-01   0.865E-04
VELOCITY                               :           -0.907E-04  -0.144E-03
ACCLERATION                            :           -0.125E-05   0.240E-06
KINETIC ENERGY                         :            0.132E-02
POTENTIAL ENERGY                       :           -0.312E+00
TOTAL ENERGY                           :           -0.311E+00
INST. TEMPERATURE                      :            0.417E+03

ITERATION                              :                 41
TIME                                   :            0.287E+03
POSITION                               :            0.158E-01  -0.916E-03
VELOCITY                               :           -0.992E-04  -0.142E-03
ACCLERATION                            :           -0.120E-05   0.319E-06
KINETIC ENERGY                         :            0.137E-02
POTENTIAL ENERGY                       :           -0.312E+00
TOTAL ENERGY                           :           -0.311E+00
INST. TEMPERATURE                      :            0.432E+03

ITERATION                              :                 42
TIME                                   :            0.294E+03
POSITION                               :            0.151E-01  -0.190E-02
VELOCITY                               :           -0.107E-03  -0.140E-03
ACCLERATION                            :           -0.114E-05   0.397E-06
KINETIC ENERGY                         :            0.141E-02
POTENTIAL ENERGY                       :           -0.312E+00
TOTAL ENERGY                           :           -0.311E+00
INST. TEMPERATURE                      :            0.446E+03

ITERATION                              :                 43
TIME                                   :            0.301E+03
POSITION                               :            0.143E-01  -0.287E-02
VELOCITY                               :           -0.115E-03  -0.137E-03
ACCLERATION                            :           -0.108E-05   0.474E-06
KINETIC ENERGY                         :            0.145E-02
POTENTIAL ENERGY                       :           -0.312E+00
TOTAL ENERGY                           :           -0.311E+00
INST. TEMPERATURE                      :            0.459E+03

ITERATION                              :                 44
TIME                                   :            0.308E+03
POSITION                               :            0.135E-01  -0.382E-02
VELOCITY                               :           -0.608E-04  -0.131E-03
ACCLERATION                            :           -0.101E-05   0.550E-06
KINETIC ENERGY                         :            0.149E-02
POTENTIAL ENERGY                       :           -0.312E+00
TOTAL ENERGY                           :           -0.311E+00
INST. TEMPERATURE                      :            0.470E+03

ITERATION                              :                 45
TIME                                   :            0.315E+03
POSITION                               :            0.130E-01  -0.472E-02
VELOCITY                               :           -0.678E-04  -0.127E-03
ACCLERATION                            :           -0.974E-06   0.622E-06
KINETIC ENERGY                         :            0.943E-03
POTENTIAL ENERGY                       :           -0.312E+00
TOTAL ENERGY                           :           -0.311E+00
INST. TEMPERATURE                      :            0.298E+03

ITERATION                              :                 46
TIME                                   :            0.322E+03
POSITION                               :            0.125E-01  -0.559E-02
VELOCITY                               :           -0.744E-04  -0.122E-03
ACCLERATION                            :           -0.933E-06   0.692E-06
KINETIC ENERGY                         :            0.934E-03
POTENTIAL ENERGY                       :           -0.312E+00
TOTAL ENERGY                           :           -0.311E+00
INST. TEMPERATURE                      :            0.295E+03

ITERATION                              :                 47
TIME                                   :            0.329E+03
POSITION                               :            0.120E-01  -0.643E-02
VELOCITY                               :           -0.808E-04  -0.117E-03
ACCLERATION                            :           -0.887E-06   0.760E-06
KINETIC ENERGY                         :            0.923E-03
POTENTIAL ENERGY                       :           -0.312E+00
TOTAL ENERGY                           :           -0.311E+00
INST. TEMPERATURE                      :            0.292E+03

ITERATION                              :                 48
TIME                                   :            0.336E+03
POSITION                               :            0.114E-01  -0.723E-02
VELOCITY                               :           -0.869E-04  -0.112E-03
ACCLERATION                            :           -0.838E-06   0.825E-06
KINETIC ENERGY                         :            0.911E-03
POTENTIAL ENERGY                       :           -0.312E+00
TOTAL ENERGY                           :           -0.311E+00
INST. TEMPERATURE                      :            0.288E+03

ITERATION                              :                 49
TIME                                   :            0.343E+03
POSITION                               :            0.107E-01  -0.799E-02
VELOCITY                               :           -0.925E-04  -0.106E-03
ACCLERATION                            :           -0.786E-06   0.886E-06
KINETIC ENERGY                         :            0.899E-03
POTENTIAL ENERGY                       :           -0.312E+00
TOTAL ENERGY                           :           -0.311E+00
INST. TEMPERATURE                      :            0.284E+03

ITERATION                              :                 50
TIME                                   :            0.350E+03
POSITION                               :            0.101E-01  -0.871E-02
VELOCITY                               :           -0.978E-04  -0.993E-04
ACCLERATION                            :           -0.730E-06   0.944E-06
KINETIC ENERGY                         :            0.885E-03
POTENTIAL ENERGY                       :           -0.312E+00
TOTAL ENERGY                           :           -0.311E+00
INST. TEMPERATURE                      :            0.279E+03

ITERATION                              :                 51
TIME                                   :            0.357E+03
POSITION                               :            0.937E-02  -0.938E-02
VELOCITY                               :           -0.103E-03  -0.925E-04
ACCLERATION                            :           -0.671E-06   0.999E-06
KINETIC ENERGY                         :            0.870E-03
POTENTIAL ENERGY                       :           -0.312E+00
TOTAL ENERGY                           :           -0.311E+00
INST. TEMPERATURE                      :            0.275E+03

ITERATION                              :                 52
TIME                                   :            0.364E+03
POSITION                               :            0.864E-02  -0.100E-01
VELOCITY                               :           -0.107E-03  -0.853E-04
ACCLERATION                            :           -0.609E-06   0.105E-05
KINETIC ENERGY                         :            0.855E-03
POTENTIAL ENERGY                       :           -0.312E+00
TOTAL ENERGY                           :           -0.311E+00
INST. TEMPERATURE                      :            0.270E+03

ITERATION                              :                 53
TIME                                   :            0.371E+03
POSITION                               :            0.787E-02  -0.106E-01
VELOCITY                               :           -0.111E-03  -0.778E-04
ACCLERATION                            :           -0.544E-06   0.110E-05
KINETIC ENERGY                         :            0.839E-03
POTENTIAL ENERGY                       :           -0.312E+00
TOTAL ENERGY                           :           -0.311E+00
INST. TEMPERATURE                      :            0.265E+03

ITERATION                              :                 54
TIME                                   :            0.378E+03
POSITION                               :            0.708E-02  -0.111E-01
VELOCITY                               :           -0.115E-03  -0.700E-04
ACCLERATION                            :           -0.478E-06   0.114E-05
KINETIC ENERGY                         :            0.824E-03
POTENTIAL ENERGY                       :           -0.312E+00
TOTAL ENERGY                           :           -0.311E+00
INST. TEMPERATURE                      :            0.260E+03

ITERATION                              :                 55
TIME                                   :            0.385E+03
POSITION                               :            0.626E-02  -0.116E-01
VELOCITY                               :           -0.128E-03  -0.671E-04
ACCLERATION                            :           -0.409E-06   0.118E-05
KINETIC ENERGY                         :            0.808E-03
POTENTIAL ENERGY                       :           -0.312E+00
TOTAL ENERGY                           :           -0.311E+00
INST. TEMPERATURE                      :            0.255E+03

ITERATION                              :                 56
TIME                                   :            0.392E+03
POSITION                               :            0.536E-02  -0.120E-01
VELOCITY                               :           -0.130E-03  -0.587E-04
ACCLERATION                            :           -0.333E-06   0.121E-05
KINETIC ENERGY                         :            0.933E-03
POTENTIAL ENERGY                       :           -0.312E+00
TOTAL ENERGY                           :           -0.311E+00
INST. TEMPERATURE                      :            0.295E+03

ITERATION                              :                 57
TIME                                   :            0.399E+03
POSITION                               :            0.444E-02  -0.124E-01
VELOCITY                               :           -0.133E-03  -0.501E-04
ACCLERATION                            :           -0.255E-06   0.124E-05
KINETIC ENERGY                         :            0.915E-03
POTENTIAL ENERGY                       :           -0.312E+00
TOTAL ENERGY                           :           -0.311E+00
INST. TEMPERATURE                      :            0.289E+03

ITERATION                              :                 58
TIME                                   :            0.406E+03
POSITION                               :            0.350E-02  -0.127E-01
VELOCITY                               :           -0.134E-03  -0.413E-04
ACCLERATION                            :           -0.176E-06   0.127E-05
KINETIC ENERGY                         :            0.896E-03
POTENTIAL ENERGY                       :           -0.312E+00
TOTAL ENERGY                           :           -0.311E+00
INST. TEMPERATURE                      :            0.283E+03

ITERATION                              :                 59
TIME                                   :            0.413E+03
POSITION                               :            0.256E-02  -0.130E-01
VELOCITY                               :           -0.135E-03  -0.324E-04
ACCLERATION                            :           -0.957E-07   0.129E-05
KINETIC ENERGY                         :            0.878E-03
POTENTIAL ENERGY                       :           -0.312E+00
TOTAL ENERGY                           :           -0.311E+00
INST. TEMPERATURE                      :            0.277E+03

ITERATION                              :                 60
TIME                                   :            0.420E+03
POSITION                               :            0.161E-02  -0.132E-01
VELOCITY                               :           -0.135E-03  -0.233E-04
ACCLERATION                            :           -0.155E-07   0.131E-05
KINETIC ENERGY                         :            0.860E-03
POTENTIAL ENERGY                       :           -0.312E+00
TOTAL ENERGY                           :           -0.311E+00
INST. TEMPERATURE                      :            0.271E+03

ITERATION                              :                 61
TIME                                   :            0.427E+03
POSITION                               :            0.666E-03  -0.133E-01
VELOCITY                               :           -0.135E-03  -0.141E-04
ACCLERATION                            :            0.649E-07   0.132E-05
KINETIC ENERGY                         :            0.842E-03
POTENTIAL ENERGY                       :           -0.312E+00
TOTAL ENERGY                           :           -0.311E+00
INST. TEMPERATURE                      :            0.266E+03

ITERATION                              :                 62
TIME                                   :            0.434E+03
POSITION                               :           -0.279E-03  -0.134E-01
VELOCITY                               :           -0.134E-03  -0.491E-05
ACCLERATION                            :            0.145E-06   0.132E-05
KINETIC ENERGY                         :            0.825E-03
POTENTIAL ENERGY                       :           -0.312E+00
TOTAL ENERGY                           :           -0.311E+00
INST. TEMPERATURE                      :            0.260E+03

ITERATION                              :                 63
TIME                                   :            0.441E+03
POSITION                               :           -0.122E-02  -0.134E-01
VELOCITY                               :           -0.133E-03   0.433E-05
ACCLERATION                            :            0.225E-06   0.132E-05
KINETIC ENERGY                         :            0.809E-03
POTENTIAL ENERGY                       :           -0.312E+00
TOTAL ENERGY                           :           -0.311E+00
INST. TEMPERATURE                      :            0.255E+03

ITERATION                              :                 64
TIME                                   :            0.448E+03
POSITION                               :           -0.214E-02  -0.133E-01
VELOCITY                               :           -0.131E-03   0.136E-04
ACCLERATION                            :            0.303E-06   0.132E-05
KINETIC ENERGY                         :            0.794E-03
POTENTIAL ENERGY                       :           -0.312E+00
TOTAL ENERGY                           :           -0.311E+00
INST. TEMPERATURE                      :            0.251E+03

ITERATION                              :                 65
TIME                                   :            0.455E+03
POSITION                               :           -0.306E-02  -0.132E-01
VELOCITY                               :           -0.129E-03   0.227E-04
ACCLERATION                            :            0.381E-06   0.130E-05
KINETIC ENERGY                         :            0.781E-03
POTENTIAL ENERGY                       :           -0.312E+00
TOTAL ENERGY                           :           -0.311E+00
INST. TEMPERATURE                      :            0.247E+03

ITERATION                              :                 66
TIME                                   :            0.462E+03
POSITION                               :           -0.395E-02  -0.130E-01
VELOCITY                               :           -0.120E-03   0.810E-04
ACCLERATION                            :            0.457E-06   0.129E-05
KINETIC ENERGY                         :            0.769E-03
POTENTIAL ENERGY                       :           -0.312E+00
TOTAL ENERGY                           :           -0.311E+00
INST. TEMPERATURE                      :            0.243E+03

ITERATION                              :                 67
TIME                                   :            0.469E+03
POSITION                               :           -0.477E-02  -0.124E-01
VELOCITY                               :           -0.116E-03   0.898E-04
ACCLERATION                            :            0.528E-06   0.124E-05
KINETIC ENERGY                         :            0.982E-03
POTENTIAL ENERGY                       :           -0.312E+00
TOTAL ENERGY                           :           -0.311E+00
INST. TEMPERATURE                      :            0.310E+03

ITERATION                              :                 68
TIME                                   :            0.476E+03
POSITION                               :           -0.557E-02  -0.117E-01
VELOCITY                               :           -0.112E-03   0.983E-04
ACCLERATION                            :            0.597E-06   0.119E-05
KINETIC ENERGY                         :            0.101E-02
POTENTIAL ENERGY                       :           -0.312E+00
TOTAL ENERGY                           :           -0.311E+00
INST. TEMPERATURE                      :            0.320E+03

ITERATION                              :                 69
TIME                                   :            0.483E+03
POSITION                               :           -0.635E-02  -0.110E-01
VELOCITY                               :           -0.108E-03   0.106E-03
ACCLERATION                            :            0.663E-06   0.113E-05
KINETIC ENERGY                         :            0.105E-02
POTENTIAL ENERGY                       :           -0.312E+00
TOTAL ENERGY                           :           -0.311E+00
INST. TEMPERATURE                      :            0.330E+03

ITERATION                              :                 70
TIME                                   :            0.490E+03
POSITION                               :           -0.708E-02  -0.102E-01
VELOCITY                               :           -0.103E-03   0.114E-03
ACCLERATION                            :            0.727E-06   0.107E-05
KINETIC ENERGY                         :            0.108E-02
POTENTIAL ENERGY                       :           -0.312E+00
TOTAL ENERGY                           :           -0.311E+00
INST. TEMPERATURE                      :            0.340E+03

ITERATION                              :                 71
TIME                                   :            0.497E+03
POSITION                               :           -0.779E-02  -0.940E-02
VELOCITY                               :           -0.976E-04   0.121E-03
ACCLERATION                            :            0.788E-06   0.100E-05
KINETIC ENERGY                         :            0.111E-02
POTENTIAL ENERGY                       :           -0.312E+00
TOTAL ENERGY                           :           -0.311E+00
INST. TEMPERATURE                      :            0.349E+03

ITERATION                              :                 72
TIME                                   :            0.504E+03
POSITION                               :           -0.845E-02  -0.853E-02
VELOCITY                               :           -0.919E-04   0.128E-03
ACCLERATION                            :            0.846E-06   0.932E-06
KINETIC ENERGY                         :            0.113E-02
POTENTIAL ENERGY                       :           -0.312E+00
TOTAL ENERGY                           :           -0.311E+00
INST. TEMPERATURE                      :            0.358E+03

ITERATION                              :                 73
TIME                                   :            0.511E+03
POSITION                               :           -0.907E-02  -0.761E-02
VELOCITY                               :           -0.858E-04   0.134E-03
ACCLERATION                            :            0.900E-06   0.858E-06
KINETIC ENERGY                         :            0.116E-02
POTENTIAL ENERGY                       :           -0.312E+00
TOTAL ENERGY                           :           -0.311E+00
INST. TEMPERATURE                      :            0.366E+03

ITERATION                              :                 74
TIME                                   :            0.518E+03
POSITION                               :           -0.965E-02  -0.664E-02
VELOCITY                               :           -0.793E-04   0.140E-03
ACCLERATION                            :            0.950E-06   0.780E-06
KINETIC ENERGY                         :            0.118E-02
POTENTIAL ENERGY                       :           -0.312E+00
TOTAL ENERGY                           :           -0.311E+00
INST. TEMPERATURE                      :            0.373E+03

ITERATION                              :                 75
TIME                                   :            0.525E+03
POSITION                               :           -0.102E-01  -0.564E-02
VELOCITY                               :           -0.725E-04   0.145E-03
ACCLERATION                            :            0.997E-06   0.700E-06
KINETIC ENERGY                         :            0.120E-02
POTENTIAL ENERGY                       :           -0.312E+00
TOTAL ENERGY                           :           -0.311E+00
INST. TEMPERATURE                      :            0.379E+03

ITERATION                              :                 76
TIME                                   :            0.532E+03
POSITION                               :           -0.107E-01  -0.461E-02
VELOCITY                               :           -0.654E-04   0.150E-03
ACCLERATION                            :            0.104E-05   0.617E-06
KINETIC ENERGY                         :            0.122E-02
POTENTIAL ENERGY                       :           -0.312E+00
TOTAL ENERGY                           :           -0.311E+00
INST. TEMPERATURE                      :            0.385E+03

ITERATION                              :                 77
TIME                                   :            0.539E+03
POSITION                               :           -0.111E-01  -0.355E-02
VELOCITY                               :           -0.710E-04   0.126E-03
ACCLERATION                            :            0.108E-05   0.531E-06
KINETIC ENERGY                         :            0.123E-02
POTENTIAL ENERGY                       :           -0.312E+00
TOTAL ENERGY                           :           -0.311E+00
INST. TEMPERATURE                      :            0.389E+03

ITERATION                              :                 78
TIME                                   :            0.546E+03
POSITION                               :           -0.116E-01  -0.265E-02
VELOCITY                               :           -0.633E-04   0.129E-03
ACCLERATION                            :            0.112E-05   0.460E-06
KINETIC ENERGY                         :            0.943E-03
POTENTIAL ENERGY                       :           -0.312E+00
TOTAL ENERGY                           :           -0.311E+00
INST. TEMPERATURE                      :            0.298E+03

ITERATION                              :                 79
TIME                                   :            0.553E+03
POSITION                               :           -0.120E-01  -0.174E-02
VELOCITY                               :           -0.553E-04   0.132E-03
ACCLERATION                            :            0.115E-05   0.387E-06
KINETIC ENERGY                         :            0.936E-03
POTENTIAL ENERGY                       :           -0.312E+00
TOTAL ENERGY                           :           -0.311E+00
INST. TEMPERATURE                      :            0.295E+03

ITERATION                              :                 80
TIME                                   :            0.560E+03
POSITION                               :           -0.123E-01  -0.801E-03
VELOCITY                               :           -0.472E-04   0.135E-03
ACCLERATION                            :            0.118E-05   0.313E-06
KINETIC ENERGY                         :            0.927E-03
POTENTIAL ENERGY                       :           -0.312E+00
TOTAL ENERGY                           :           -0.311E+00
INST. TEMPERATURE                      :            0.293E+03

ITERATION                              :                 81
TIME                                   :            0.567E+03
POSITION                               :           -0.126E-01   0.149E-03
VELOCITY                               :           -0.388E-04   0.137E-03
ACCLERATION                            :            0.121E-05   0.238E-06
KINETIC ENERGY                         :            0.918E-03
POTENTIAL ENERGY                       :           -0.312E+00
TOTAL ENERGY                           :           -0.311E+00
INST. TEMPERATURE                      :            0.290E+03

ITERATION                              :                 82
TIME                                   :            0.574E+03
POSITION                               :           -0.129E-01   0.111E-02
VELOCITY                               :           -0.303E-04   0.138E-03
ACCLERATION                            :            0.123E-05   0.162E-06
KINETIC ENERGY                         :            0.909E-03
POTENTIAL ENERGY                       :           -0.312E+00
TOTAL ENERGY                           :           -0.311E+00
INST. TEMPERATURE                      :            0.287E+03

ITERATION                              :                 83
TIME                                   :            0.581E+03
POSITION                               :           -0.131E-01   0.208E-02
VELOCITY                               :           -0.216E-04   0.139E-03
ACCLERATION                            :            0.124E-05   0.866E-07
KINETIC ENERGY                         :            0.900E-03
POTENTIAL ENERGY                       :           -0.312E+00
TOTAL ENERGY                           :           -0.311E+00
INST. TEMPERATURE                      :            0.284E+03

ITERATION                              :                 84
TIME                                   :            0.588E+03
POSITION                               :           -0.132E-01   0.306E-02
VELOCITY                               :           -0.129E-04   0.139E-03
ACCLERATION                            :            0.125E-05   0.112E-07
KINETIC ENERGY                         :            0.890E-03
POTENTIAL ENERGY                       :           -0.312E+00
TOTAL ENERGY                           :           -0.311E+00
INST. TEMPERATURE                      :            0.281E+03

ITERATION                              :                 85
TIME                                   :            0.595E+03
POSITION                               :           -0.132E-01   0.403E-02
VELOCITY                               :           -0.407E-05   0.139E-03
ACCLERATION                            :            0.126E-05  -0.637E-07
KINETIC ENERGY                         :            0.881E-03
POTENTIAL ENERGY                       :           -0.312E+00
TOTAL ENERGY                           :           -0.311E+00
INST. TEMPERATURE                      :            0.278E+03

ITERATION                              :                 86
TIME                                   :            0.602E+03
POSITION                               :           -0.132E-01   0.500E-02
VELOCITY                               :            0.474E-05   0.138E-03
ACCLERATION                            :            0.126E-05  -0.138E-06
KINETIC ENERGY                         :            0.872E-03
POTENTIAL ENERGY                       :           -0.312E+00
TOTAL ENERGY                           :           -0.311E+00
INST. TEMPERATURE                      :            0.276E+03

ITERATION                              :                 87
TIME                                   :            0.609E+03
POSITION                               :           -0.132E-01   0.597E-02
VELOCITY                               :            0.135E-04   0.137E-03
ACCLERATION                            :            0.125E-05  -0.211E-06
KINETIC ENERGY                         :            0.864E-03
POTENTIAL ENERGY                       :           -0.312E+00
TOTAL ENERGY                           :           -0.311E+00
INST. TEMPERATURE                      :            0.273E+03

ITERATION                              :                 88
TIME                                   :            0.616E+03
POSITION                               :           -0.131E-01   0.692E-02
VELOCITY                               :            0.130E-04   0.144E-03
ACCLERATION                            :            0.124E-05  -0.283E-06
KINETIC ENERGY                         :            0.857E-03
POTENTIAL ENERGY                       :           -0.312E+00
TOTAL ENERGY                           :           -0.311E+00
INST. TEMPERATURE                      :            0.271E+03

ITERATION                              :                 89
TIME                                   :            0.623E+03
POSITION                               :           -0.129E-01   0.792E-02
VELOCITY                               :            0.216E-04   0.142E-03
ACCLERATION                            :            0.123E-05  -0.357E-06
KINETIC ENERGY                         :            0.935E-03
POTENTIAL ENERGY                       :           -0.312E+00
TOTAL ENERGY                           :           -0.311E+00
INST. TEMPERATURE                      :            0.295E+03

ITERATION                              :                 90
TIME                                   :            0.630E+03
POSITION                               :           -0.128E-01   0.890E-02
VELOCITY                               :            0.302E-04   0.139E-03
ACCLERATION                            :            0.121E-05  -0.429E-06
KINETIC ENERGY                         :            0.920E-03
POTENTIAL ENERGY                       :           -0.312E+00
TOTAL ENERGY                           :           -0.311E+00
INST. TEMPERATURE                      :            0.290E+03

ITERATION                              :                 91
TIME                                   :            0.637E+03
POSITION                               :           -0.125E-01   0.986E-02
VELOCITY                               :            0.386E-04   0.136E-03
ACCLERATION                            :            0.119E-05  -0.499E-06
KINETIC ENERGY                         :            0.905E-03
POTENTIAL ENERGY                       :           -0.312E+00
TOTAL ENERGY                           :           -0.311E+00
INST. TEMPERATURE                      :            0.286E+03

ITERATION                              :                 92
TIME                                   :            0.644E+03
POSITION                               :           -0.122E-01   0.108E-01
VELOCITY                               :            0.468E-04   0.132E-03
ACCLERATION                            :            0.116E-05  -0.567E-06
KINETIC ENERGY                         :            0.892E-03
POTENTIAL ENERGY                       :           -0.312E+00
TOTAL ENERGY                           :           -0.311E+00
INST. TEMPERATURE                      :            0.282E+03

ITERATION                              :                 93
TIME                                   :            0.651E+03
POSITION                               :           -0.119E-01   0.117E-01
VELOCITY                               :            0.548E-04   0.128E-03
ACCLERATION                            :            0.113E-05  -0.632E-06
KINETIC ENERGY                         :            0.880E-03
POTENTIAL ENERGY                       :           -0.312E+00
TOTAL ENERGY                           :           -0.311E+00
INST. TEMPERATURE                      :            0.278E+03

ITERATION                              :                 94
TIME                                   :            0.658E+03
POSITION                               :           -0.114E-01   0.126E-01
VELOCITY                               :            0.626E-04   0.123E-03
ACCLERATION                            :            0.110E-05  -0.694E-06
KINETIC ENERGY                         :            0.868E-03
POTENTIAL ENERGY                       :           -0.312E+00
TOTAL ENERGY                           :           -0.311E+00
INST. TEMPERATURE                      :            0.274E+03

ITERATION                              :                 95
TIME                                   :            0.665E+03
POSITION                               :           -0.110E-01   0.134E-01
VELOCITY                               :            0.702E-04   0.118E-03
ACCLERATION                            :            0.106E-05  -0.753E-06
KINETIC ENERGY                         :            0.858E-03
POTENTIAL ENERGY                       :           -0.312E+00
TOTAL ENERGY                           :           -0.311E+00
INST. TEMPERATURE                      :            0.271E+03

ITERATION                              :                 96
TIME                                   :            0.672E+03
POSITION                               :           -0.105E-01   0.142E-01
VELOCITY                               :            0.774E-04   0.113E-03
ACCLERATION                            :            0.101E-05  -0.809E-06
KINETIC ENERGY                         :            0.850E-03
POTENTIAL ENERGY                       :           -0.312E+00
TOTAL ENERGY                           :           -0.311E+00
INST. TEMPERATURE                      :            0.268E+03

ITERATION                              :                 97
TIME                                   :            0.679E+03
POSITION                               :           -0.990E-02   0.150E-01
VELOCITY                               :            0.843E-04   0.107E-03
ACCLERATION                            :            0.962E-06  -0.861E-06
KINETIC ENERGY                         :            0.842E-03
POTENTIAL ENERGY                       :           -0.312E+00
TOTAL ENERGY                           :           -0.311E+00
INST. TEMPERATURE                      :            0.266E+03

ITERATION                              :                 98
TIME                                   :            0.686E+03
POSITION                               :           -0.928E-02   0.157E-01
VELOCITY                               :            0.909E-04   0.100E-03
ACCLERATION                            :            0.910E-06  -0.911E-06
KINETIC ENERGY                         :            0.836E-03
POTENTIAL ENERGY                       :           -0.312E+00
TOTAL ENERGY                           :           -0.311E+00
INST. TEMPERATURE                      :            0.264E+03

ITERATION                              :                 99
TIME                                   :            0.693E+03
POSITION                               :           -0.863E-02   0.164E-01
VELOCITY                               :            0.104E-03   0.100E-03
ACCLERATION                            :            0.853E-06  -0.956E-06
KINETIC ENERGY                         :            0.831E-03
POTENTIAL ENERGY                       :           -0.312E+00
TOTAL ENERGY                           :           -0.311E+00
INST. TEMPERATURE                      :            0.262E+03

ITERATION                              :                100
TIME                                   :            0.700E+03
POSITION                               :           -0.788E-02   0.171E-01
VELOCITY                               :            0.110E-03   0.936E-04
ACCLERATION                            :            0.789E-06  -0.100E-05
KINETIC ENERGY                         :            0.945E-03
POTENTIAL ENERGY                       :           -0.312E+00
TOTAL ENERGY                           :           -0.311E+00
INST. TEMPERATURE                      :            0.299E+03

ITERATION                              :                101
TIME                                   :            0.707E+03
POSITION                               :           -0.709E-02   0.177E-01
VELOCITY                               :            0.115E-03   0.864E-04
ACCLERATION                            :            0.722E-06  -0.104E-05
KINETIC ENERGY                         :            0.941E-03
POTENTIAL ENERGY                       :           -0.312E+00
TOTAL ENERGY                           :           -0.311E+00
INST. TEMPERATURE                      :            0.297E+03

ITERATION                              :                102
TIME                                   :            0.714E+03
POSITION                               :           -0.627E-02   0.183E-01
VELOCITY                               :            0.120E-03   0.790E-04
ACCLERATION                            :            0.650E-06  -0.108E-05
KINETIC ENERGY                         :            0.936E-03
POTENTIAL ENERGY                       :           -0.312E+00
TOTAL ENERGY                           :           -0.311E+00
INST. TEMPERATURE                      :            0.296E+03

ITERATION                              :                103
TIME                                   :            0.721E+03
POSITION                               :           -0.542E-02   0.188E-01
VELOCITY                               :            0.124E-03   0.714E-04
ACCLERATION                            :            0.578E-06  -0.111E-05
KINETIC ENERGY                         :            0.931E-03
POTENTIAL ENERGY                       :           -0.312E+00
TOTAL ENERGY                           :           -0.311E+00
INST. TEMPERATURE                      :            0.294E+03

ITERATION                              :                104
TIME                                   :            0.728E+03
POSITION                               :           -0.454E-02   0.193E-01
VELOCITY                               :            0.128E-03   0.635E-04
ACCLERATION                            :            0.503E-06  -0.114E-05
KINETIC ENERGY                         :            0.926E-03
POTENTIAL ENERGY                       :           -0.312E+00
TOTAL ENERGY                           :           -0.311E+00
INST. TEMPERATURE                      :            0.292E+03

ITERATION                              :                105
TIME                                   :            0.735E+03
POSITION                               :           -0.363E-02   0.197E-01
VELOCITY                               :            0.131E-03   0.554E-04
ACCLERATION                            :            0.426E-06  -0.117E-05
KINETIC ENERGY                         :            0.921E-03
POTENTIAL ENERGY                       :           -0.312E+00
TOTAL ENERGY                           :           -0.311E+00
INST. TEMPERATURE                      :            0.291E+03

ITERATION                              :                106
TIME                                   :            0.742E+03
POSITION                               :           -0.270E-02   0.201E-01
VELOCITY                               :            0.134E-03   0.471E-04
ACCLERATION                            :            0.348E-06  -0.119E-05
KINETIC ENERGY                         :            0.915E-03
POTENTIAL ENERGY                       :           -0.312E+00
TOTAL ENERGY                           :           -0.311E+00
INST. TEMPERATURE                      :            0.289E+03

ITERATION                              :                107
TIME                                   :            0.749E+03
POSITION                               :           -0.176E-02   0.204E-01
VELOCITY                               :            0.136E-03   0.387E-04
ACCLERATION                            :            0.268E-06  -0.121E-05
KINETIC ENERGY                         :            0.909E-03
POTENTIAL ENERGY                       :           -0.312E+00
TOTAL ENERGY                           :           -0.311E+00
INST. TEMPERATURE                      :            0.287E+03

ITERATION                              :                108
TIME                                   :            0.756E+03
POSITION                               :           -0.802E-03   0.206E-01
VELOCITY                               :            0.137E-03   0.302E-04
ACCLERATION                            :            0.188E-06  -0.122E-05
KINETIC ENERGY                         :            0.902E-03
POTENTIAL ENERGY                       :           -0.312E+00
TOTAL ENERGY                           :           -0.311E+00
INST. TEMPERATURE                      :            0.285E+03

ITERATION                              :                109
TIME                                   :            0.763E+03
POSITION                               :            0.165E-03   0.208E-01
VELOCITY                               :            0.138E-03   0.216E-04
ACCLERATION                            :            0.107E-06  -0.123E-05
KINETIC ENERGY                         :            0.894E-03
POTENTIAL ENERGY                       :           -0.312E+00
TOTAL ENERGY                           :           -0.311E+00
INST. TEMPERATURE                      :            0.282E+03

ITERATION                              :                110
TIME                                   :            0.770E+03
POSITION                               :            0.114E-02   0.209E-01
VELOCITY                               :            0.143E-03   0.231E-04
ACCLERATION                            :            0.251E-07  -0.124E-05
KINETIC ENERGY                         :            0.887E-03
POTENTIAL ENERGY                       :           -0.312E+00
TOTAL ENERGY                           :           -0.311E+00
INST. TEMPERATURE                      :            0.280E+03

ITERATION                              :                111
TIME                                   :            0.777E+03
POSITION                               :            0.213E-02   0.211E-01
VELOCITY                               :            0.142E-03   0.144E-04
ACCLERATION                            :           -0.584E-07  -0.125E-05
KINETIC ENERGY                         :            0.934E-03
POTENTIAL ENERGY                       :           -0.312E+00
TOTAL ENERGY                           :           -0.311E+00
INST. TEMPERATURE                      :            0.295E+03

ITERATION                              :                112
TIME                                   :            0.784E+03
POSITION                               :            0.313E-02   0.211E-01
VELOCITY                               :            0.142E-03   0.562E-05
ACCLERATION                            :           -0.141E-06  -0.125E-05
KINETIC ENERGY                         :            0.917E-03
POTENTIAL ENERGY                       :           -0.312E+00
TOTAL ENERGY                           :           -0.311E+00
INST. TEMPERATURE                      :            0.289E+03

ITERATION                              :                113
TIME                                   :            0.791E+03
POSITION                               :            0.412E-02   0.211E-01
VELOCITY                               :            0.140E-03  -0.315E-05
ACCLERATION                            :           -0.224E-06  -0.125E-05
KINETIC ENERGY                         :            0.899E-03
POTENTIAL ENERGY                       :           -0.312E+00
TOTAL ENERGY                           :           -0.311E+00
INST. TEMPERATURE                      :            0.284E+03

ITERATION                              :                114
TIME                                   :            0.798E+03
POSITION                               :            0.510E-02   0.211E-01
VELOCITY                               :            0.139E-03  -0.119E-04
ACCLERATION                            :           -0.305E-06  -0.125E-05
KINETIC ENERGY                         :            0.882E-03
POTENTIAL ENERGY                       :           -0.312E+00
TOTAL ENERGY                           :           -0.311E+00
INST. TEMPERATURE                      :            0.278E+03

ITERATION                              :                115
TIME                                   :            0.805E+03
POSITION                               :            0.606E-02   0.210E-01
VELOCITY                               :            0.136E-03  -0.206E-04
ACCLERATION                            :           -0.384E-06  -0.124E-05
KINETIC ENERGY                         :            0.864E-03
POTENTIAL ENERGY                       :           -0.312E+00
TOTAL ENERGY                           :           -0.311E+00
INST. TEMPERATURE                      :            0.273E+03

ITERATION                              :                116
TIME                                   :            0.812E+03
POSITION                               :            0.700E-02   0.208E-01
VELOCITY                               :            0.133E-03  -0.292E-04
ACCLERATION                            :           -0.462E-06  -0.123E-05
KINETIC ENERGY                         :            0.848E-03
POTENTIAL ENERGY                       :           -0.312E+00
TOTAL ENERGY                           :           -0.311E+00
INST. TEMPERATURE                      :            0.268E+03

ITERATION                              :                117
TIME                                   :            0.819E+03
POSITION                               :            0.793E-02   0.206E-01
VELOCITY                               :            0.130E-03  -0.378E-04
ACCLERATION                            :           -0.537E-06  -0.121E-05
KINETIC ENERGY                         :            0.832E-03
POTENTIAL ENERGY                       :           -0.312E+00
TOTAL ENERGY                           :           -0.311E+00
INST. TEMPERATURE                      :            0.263E+03

ITERATION                              :                118
TIME                                   :            0.826E+03
POSITION                               :            0.882E-02   0.203E-01
VELOCITY                               :            0.126E-03  -0.462E-04
ACCLERATION                            :           -0.611E-06  -0.119E-05
KINETIC ENERGY                         :            0.817E-03
POTENTIAL ENERGY                       :           -0.312E+00
TOTAL ENERGY                           :           -0.311E+00
INST. TEMPERATURE                      :            0.258E+03

ITERATION                              :                119
TIME                                   :            0.833E+03
POSITION                               :            0.969E-02   0.199E-01
VELOCITY                               :            0.121E-03  -0.545E-04
ACCLERATION                            :           -0.681E-06  -0.117E-05
KINETIC ENERGY                         :            0.804E-03
POTENTIAL ENERGY                       :           -0.312E+00
TOTAL ENERGY                           :           -0.311E+00
INST. TEMPERATURE                      :            0.254E+03

ITERATION                              :                120
TIME                                   :            0.840E+03
POSITION                               :            0.105E-01   0.195E-01
VELOCITY                               :            0.116E-03  -0.626E-04
ACCLERATION                            :           -0.749E-06  -0.114E-05
KINETIC ENERGY                         :            0.793E-03
POTENTIAL ENERGY                       :           -0.312E+00
TOTAL ENERGY                           :           -0.311E+00
INST. TEMPERATURE                      :            0.251E+03

ITERATION                              :                121
TIME                                   :            0.847E+03
POSITION                               :            0.113E-01   0.190E-01
VELOCITY                               :            0.143E-03  -0.183E-04
ACCLERATION                            :           -0.814E-06  -0.111E-05
KINETIC ENERGY                         :            0.785E-03
POTENTIAL ENERGY                       :           -0.312E+00
TOTAL ENERGY                           :           -0.311E+00
INST. TEMPERATURE                      :            0.248E+03

ITERATION                              :                122
TIME                                   :            0.854E+03
POSITION                               :            0.123E-01   0.189E-01
VELOCITY                               :            0.137E-03  -0.260E-04
ACCLERATION                            :           -0.892E-06  -0.110E-05
KINETIC ENERGY                         :            0.889E-03
POTENTIAL ENERGY                       :           -0.312E+00
TOTAL ENERGY                           :           -0.311E+00
INST. TEMPERATURE                      :            0.281E+03

ITERATION                              :                123
TIME                                   :            0.861E+03
POSITION                               :            0.132E-01   0.187E-01
VELOCITY                               :            0.131E-03  -0.336E-04
ACCLERATION                            :           -0.966E-06  -0.108E-05
KINETIC ENERGY                         :            0.831E-03
POTENTIAL ENERGY                       :           -0.312E+00
TOTAL ENERGY                           :           -0.311E+00
INST. TEMPERATURE                      :            0.262E+03

ITERATION                              :                124
TIME                                   :            0.868E+03
POSITION                               :            0.141E-01   0.184E-01
VELOCITY                               :            0.124E-03  -0.412E-04
ACCLERATION                            :           -0.104E-05  -0.106E-05
KINETIC ENERGY                         :            0.775E-03
POTENTIAL ENERGY                       :           -0.312E+00
TOTAL ENERGY                           :           -0.311E+00
INST. TEMPERATURE                      :            0.245E+03

ITERATION                              :                125
TIME                                   :            0.875E+03
POSITION                               :            0.150E-01   0.181E-01
VELOCITY                               :            0.116E-03  -0.485E-04
ACCLERATION                            :           -0.110E-05  -0.104E-05
KINETIC ENERGY                         :            0.724E-03
POTENTIAL ENERGY                       :           -0.312E+00
TOTAL ENERGY                           :           -0.311E+00
INST. TEMPERATURE                      :            0.228E+03

ITERATION                              :                126
TIME                                   :            0.882E+03
POSITION                               :            0.158E-01   0.177E-01
VELOCITY                               :            0.108E-03  -0.557E-04
ACCLERATION                            :           -0.116E-05  -0.102E-05
KINETIC ENERGY                         :            0.677E-03
POTENTIAL ENERGY                       :           -0.312E+00
TOTAL ENERGY                           :           -0.311E+00
INST. TEMPERATURE                      :            0.214E+03

ITERATION                              :                127
TIME                                   :            0.889E+03
POSITION                               :            0.165E-01   0.173E-01
VELOCITY                               :            0.100E-03  -0.628E-04
ACCLERATION                            :           -0.122E-05  -0.988E-06
KINETIC ENERGY                         :            0.636E-03
POTENTIAL ENERGY                       :           -0.312E+00
TOTAL ENERGY                           :           -0.311E+00
INST. TEMPERATURE                      :            0.201E+03

ITERATION                              :                128
TIME                                   :            0.896E+03
POSITION                               :            0.172E-01   0.169E-01
VELOCITY                               :            0.914E-04  -0.696E-04
ACCLERATION                            :           -0.127E-05  -0.957E-06
KINETIC ENERGY                         :            0.601E-03
POTENTIAL ENERGY                       :           -0.312E+00
TOTAL ENERGY                           :           -0.311E+00
INST. TEMPERATURE                      :            0.190E+03

ITERATION                              :                129
TIME                                   :            0.903E+03
POSITION                               :            0.178E-01   0.163E-01
VELOCITY                               :            0.823E-04  -0.762E-04
ACCLERATION                            :           -0.132E-05  -0.922E-06
KINETIC ENERGY                         :            0.573E-03
POTENTIAL ENERGY                       :           -0.312E+00
TOTAL ENERGY                           :           -0.311E+00
INST. TEMPERATURE                      :            0.181E+03

ITERATION                              :                130
TIME                                   :            0.910E+03
POSITION                               :            0.183E-01   0.158E-01
VELOCITY                               :            0.730E-04  -0.825E-04
ACCLERATION                            :           -0.136E-05  -0.885E-06
KINETIC ENERGY                         :            0.552E-03
POTENTIAL ENERGY                       :           -0.312E+00
TOTAL ENERGY                           :           -0.311E+00
INST. TEMPERATURE                      :            0.174E+03

ITERATION                              :                131
[...]
ACCLERATION                            :           -0.834E-06   0.168E-05
KINETIC ENERGY                         :            0.396E-03
POTENTIAL ENERGY                       :           -0.310E+00
TOTAL ENERGY                           :           -0.310E+00
INST. TEMPERATURE                      :            0.125E+03

ITERATION                              :                969
TIME                                   :            0.678E+04
POSITION                               :            0.103E-01  -0.235E-01
VELOCITY                               :           -0.111E-03  -0.860E-04
ACCLERATION                            :           -0.752E-06   0.182E-05
KINETIC ENERGY                         :            0.902E-03
POTENTIAL ENERGY                       :           -0.310E+00
TOTAL ENERGY                           :           -0.309E+00
INST. TEMPERATURE                      :            0.285E+03

ITERATION                              :                970
TIME                                   :            0.679E+04
POSITION                               :            0.950E-02  -0.241E-01
VELOCITY                               :           -0.116E-03  -0.729E-04
ACCLERATION                            :           -0.672E-06   0.193E-05
KINETIC ENERGY                         :            0.859E-03
POTENTIAL ENERGY                       :           -0.310E+00
TOTAL ENERGY                           :           -0.309E+00
INST. TEMPERATURE                      :            0.271E+03

ITERATION                              :                971
TIME                                   :            0.680E+04
POSITION                               :            0.867E-02  -0.245E-01
VELOCITY                               :           -0.121E-03  -0.591E-04
ACCLERATION                            :           -0.594E-06   0.201E-05
KINETIC ENERGY                         :            0.824E-03
POTENTIAL ENERGY                       :           -0.310E+00
TOTAL ENERGY                           :           -0.309E+00
INST. TEMPERATURE                      :            0.260E+03

ITERATION                              :                972
TIME                                   :            0.680E+04
POSITION                               :            0.781E-02  -0.249E-01
VELOCITY                               :           -0.125E-03  -0.449E-04
ACCLERATION                            :           -0.517E-06   0.206E-05
KINETIC ENERGY                         :            0.800E-03
POTENTIAL ENERGY                       :           -0.310E+00
TOTAL ENERGY                           :           -0.309E+00
INST. TEMPERATURE                      :            0.253E+03

ITERATION                              :                973
TIME                                   :            0.681E+04
POSITION                               :            0.692E-02  -0.252E-01
VELOCITY                               :           -0.128E-03  -0.303E-04
ACCLERATION                            :           -0.440E-06   0.210E-05
KINETIC ENERGY                         :            0.789E-03
POTENTIAL ENERGY                       :           -0.310E+00
TOTAL ENERGY                           :           -0.309E+00
INST. TEMPERATURE                      :            0.249E+03

ITERATION                              :                974
TIME                                   :            0.682E+04
POSITION                               :            0.602E-02  -0.253E-01
VELOCITY                               :           -0.131E-03  -0.155E-04
ACCLERATION                            :           -0.362E-06   0.212E-05
KINETIC ENERGY                         :            0.791E-03
POTENTIAL ENERGY                       :           -0.310E+00
TOTAL ENERGY                           :           -0.309E+00
INST. TEMPERATURE                      :            0.250E+03

ITERATION                              :                975
TIME                                   :            0.682E+04
POSITION                               :            0.509E-02  -0.254E-01
VELOCITY                               :           -0.133E-03  -0.579E-06
ACCLERATION                            :           -0.281E-06   0.214E-05
KINETIC ENERGY                         :            0.807E-03
POTENTIAL ENERGY                       :           -0.310E+00
TOTAL ENERGY                           :           -0.309E+00
INST. TEMPERATURE                      :            0.255E+03

ITERATION                              :                976
TIME                                   :            0.683E+04
POSITION                               :            0.415E-02  -0.253E-01
VELOCITY                               :           -0.135E-03   0.144E-04
ACCLERATION                            :           -0.198E-06   0.214E-05
KINETIC ENERGY                         :            0.837E-03
POTENTIAL ENERGY                       :           -0.310E+00
TOTAL ENERGY                           :           -0.309E+00
INST. TEMPERATURE                      :            0.264E+03

ITERATION                              :                977
TIME                                   :            0.684E+04
POSITION                               :            0.320E-02  -0.252E-01
VELOCITY                               :           -0.136E-03   0.293E-04
ACCLERATION                            :           -0.108E-06   0.212E-05
KINETIC ENERGY                         :            0.880E-03
POTENTIAL ENERGY                       :           -0.310E+00
TOTAL ENERGY                           :           -0.309E+00
INST. TEMPERATURE                      :            0.278E+03

ITERATION                              :                978
TIME                                   :            0.685E+04
POSITION                               :            0.225E-02  -0.249E-01
VELOCITY                               :           -0.136E-03   0.440E-04
ACCLERATION                            :           -0.974E-08   0.209E-05
KINETIC ENERGY                         :            0.934E-03
POTENTIAL ENERGY                       :           -0.310E+00
TOTAL ENERGY                           :           -0.309E+00
INST. TEMPERATURE                      :            0.295E+03

ITERATION                              :                979
TIME                                   :            0.685E+04
POSITION                               :            0.130E-02  -0.246E-01
VELOCITY                               :           -0.133E-03   0.570E-04
ACCLERATION                            :            0.102E-06   0.204E-05
KINETIC ENERGY                         :            0.998E-03
POTENTIAL ENERGY                       :           -0.310E+00
TOTAL ENERGY                           :           -0.309E+00
INST. TEMPERATURE                      :            0.315E+03

ITERATION                              :                980
TIME                                   :            0.686E+04
POSITION                               :            0.370E-03  -0.241E-01
VELOCITY                               :           -0.132E-03   0.710E-04
ACCLERATION                            :            0.229E-06   0.196E-05
KINETIC ENERGY                         :            0.102E-02
POTENTIAL ENERGY                       :           -0.310E+00
TOTAL ENERGY                           :           -0.309E+00
INST. TEMPERATURE                      :            0.321E+03

ITERATION                              :                981
TIME                                   :            0.687E+04
POSITION                               :           -0.545E-03  -0.236E-01
VELOCITY                               :           -0.129E-03   0.844E-04
ACCLERATION                            :            0.381E-06   0.186E-05
KINETIC ENERGY                         :            0.109E-02
POTENTIAL ENERGY                       :           -0.310E+00
TOTAL ENERGY                           :           -0.309E+00
INST. TEMPERATURE                      :            0.343E+03

ITERATION                              :                982
TIME                                   :            0.687E+04
POSITION                               :           -0.144E-02  -0.229E-01
VELOCITY                               :           -0.126E-03   0.969E-04
ACCLERATION                            :            0.563E-06   0.171E-05
KINETIC ENERGY                         :            0.115E-02
POTENTIAL ENERGY                       :           -0.311E+00
TOTAL ENERGY                           :           -0.309E+00
INST. TEMPERATURE                      :            0.364E+03

ITERATION                              :                983
TIME                                   :            0.688E+04
POSITION                               :           -0.231E-02  -0.222E-01
VELOCITY                               :           -0.121E-03   0.108E-03
ACCLERATION                            :            0.776E-06   0.154E-05
KINETIC ENERGY                         :            0.121E-02
POTENTIAL ENERGY                       :           -0.311E+00
TOTAL ENERGY                           :           -0.309E+00
INST. TEMPERATURE                      :            0.381E+03

ITERATION                              :                984
TIME                                   :            0.689E+04
POSITION                               :           -0.314E-02  -0.214E-01
VELOCITY                               :           -0.115E-03   0.118E-03
ACCLERATION                            :            0.101E-05   0.134E-05
KINETIC ENERGY                         :            0.124E-02
POTENTIAL ENERGY                       :           -0.311E+00
TOTAL ENERGY                           :           -0.309E+00
INST. TEMPERATURE                      :            0.392E+03

ITERATION                              :                985
TIME                                   :            0.690E+04
POSITION                               :           -0.392E-02  -0.205E-01
VELOCITY                               :           -0.107E-03   0.127E-03
ACCLERATION                            :            0.125E-05   0.115E-05
KINETIC ENERGY                         :            0.126E-02
POTENTIAL ENERGY                       :           -0.311E+00
TOTAL ENERGY                           :           -0.309E+00
INST. TEMPERATURE                      :            0.398E+03

ITERATION                              :                986
TIME                                   :            0.690E+04
POSITION                               :           -0.464E-02  -0.196E-01
VELOCITY                               :           -0.977E-04   0.135E-03
ACCLERATION                            :            0.147E-05   0.100E-05
KINETIC ENERGY                         :            0.126E-02
POTENTIAL ENERGY                       :           -0.311E+00
TOTAL ENERGY                           :           -0.309E+00
INST. TEMPERATURE                      :            0.398E+03

ITERATION                              :                987
TIME                                   :            0.691E+04
POSITION                               :           -0.529E-02  -0.187E-01
VELOCITY                               :           -0.867E-04   0.141E-03
ACCLERATION                            :            0.165E-05   0.955E-06
KINETIC ENERGY                         :            0.125E-02
POTENTIAL ENERGY                       :           -0.311E+00
TOTAL ENERGY                           :           -0.309E+00
INST. TEMPERATURE                      :            0.396E+03

ITERATION                              :                988
TIME                                   :            0.692E+04
POSITION                               :           -0.586E-02  -0.177E-01
VELOCITY                               :           -0.748E-04   0.148E-03
ACCLERATION                            :            0.175E-05   0.103E-05
KINETIC ENERGY                         :            0.126E-02
POTENTIAL ENERGY                       :           -0.311E+00
TOTAL ENERGY                           :           -0.309E+00
INST. TEMPERATURE                      :            0.397E+03

ITERATION                              :                989
TIME                                   :            0.692E+04
POSITION                               :           -0.634E-02  -0.166E-01
VELOCITY                               :           -0.625E-04   0.156E-03
ACCLERATION                            :            0.178E-05   0.124E-05
KINETIC ENERGY                         :            0.129E-02
POTENTIAL ENERGY                       :           -0.311E+00
TOTAL ENERGY                           :           -0.309E+00
INST. TEMPERATURE                      :            0.408E+03

ITERATION                              :                990
TIME                                   :            0.693E+04
POSITION                               :           -0.673E-02  -0.155E-01
VELOCITY                               :            0.106E-03   0.976E-04
ACCLERATION                            :            0.174E-05   0.155E-05
KINETIC ENERGY                         :            0.137E-02
POTENTIAL ENERGY                       :           -0.311E+00
TOTAL ENERGY                           :           -0.309E+00
INST. TEMPERATURE                      :            0.433E+03

ITERATION                              :                991
TIME                                   :            0.694E+04
POSITION                               :           -0.594E-02  -0.147E-01
VELOCITY                               :            0.119E-03   0.109E-03
ACCLERATION                            :            0.180E-05   0.171E-05
KINETIC ENERGY                         :            0.118E-02
POTENTIAL ENERGY                       :           -0.311E+00
TOTAL ENERGY                           :           -0.310E+00
INST. TEMPERATURE                      :            0.374E+03

ITERATION                              :                992
TIME                                   :            0.694E+04
POSITION                               :           -0.507E-02  -0.139E-01
VELOCITY                               :            0.131E-03   0.121E-03
ACCLERATION                            :            0.174E-05   0.178E-05
KINETIC ENERGY                         :            0.145E-02
POTENTIAL ENERGY                       :           -0.311E+00
TOTAL ENERGY                           :           -0.310E+00
INST. TEMPERATURE                      :            0.459E+03

ITERATION                              :                993
TIME                                   :            0.695E+04
POSITION                               :           -0.410E-02  -0.130E-01
VELOCITY                               :            0.143E-03   0.133E-03
ACCLERATION                            :            0.153E-05   0.173E-05
KINETIC ENERGY                         :            0.174E-02
POTENTIAL ENERGY                       :           -0.312E+00
TOTAL ENERGY                           :           -0.310E+00
INST. TEMPERATURE                      :            0.550E+03

ITERATION                              :                994
TIME                                   :            0.696E+04
POSITION                               :           -0.307E-02  -0.121E-01
VELOCITY                               :            0.152E-03   0.145E-03
ACCLERATION                            :            0.117E-05   0.153E-05
KINETIC ENERGY                         :            0.201E-02
POTENTIAL ENERGY                       :           -0.312E+00
TOTAL ENERGY                           :           -0.310E+00
INST. TEMPERATURE                      :            0.635E+03

ITERATION                              :                995
TIME                                   :            0.696E+04
POSITION                               :           -0.197E-02  -0.110E-01
VELOCITY                               :            0.159E-03   0.154E-03
ACCLERATION                            :            0.706E-06   0.119E-05
KINETIC ENERGY                         :            0.224E-02
POTENTIAL ENERGY                       :           -0.312E+00
TOTAL ENERGY                           :           -0.310E+00
INST. TEMPERATURE                      :            0.706E+03

ITERATION                              :                996
TIME                                   :            0.697E+04
POSITION                               :           -0.843E-03  -0.990E-02
VELOCITY                               :            0.162E-03   0.161E-03
ACCLERATION                            :            0.211E-06   0.748E-06
KINETIC ENERGY                         :            0.238E-02
POTENTIAL ENERGY                       :           -0.312E+00
TOTAL ENERGY                           :           -0.310E+00
INST. TEMPERATURE                      :            0.751E+03

ITERATION                              :                997
TIME                                   :            0.698E+04
POSITION                               :            0.296E-03  -0.876E-02
VELOCITY                               :            0.162E-03   0.165E-03
ACCLERATION                            :           -0.250E-06   0.270E-06
KINETIC ENERGY                         :            0.243E-02
POTENTIAL ENERGY                       :           -0.312E+00
TOTAL ENERGY                           :           -0.310E+00
INST. TEMPERATURE                      :            0.768E+03

ITERATION                              :                998
TIME                                   :            0.699E+04
POSITION                               :            0.142E-02  -0.760E-02
VELOCITY                               :            0.159E-03   0.165E-03
ACCLERATION                            :           -0.629E-06  -0.176E-06
KINETIC ENERGY                         :            0.239E-02
POTENTIAL ENERGY                       :           -0.312E+00
TOTAL ENERGY                           :           -0.310E+00
INST. TEMPERATURE                      :            0.755E+03

ITERATION                              :                999
TIME                                   :            0.699E+04
POSITION                               :            0.252E-02  -0.645E-02
VELOCITY                               :            0.153E-03   0.163E-03
ACCLERATION                            :           -0.906E-06  -0.530E-06
KINETIC ENERGY                         :            0.228E-02
POTENTIAL ENERGY                       :           -0.312E+00
TOTAL ENERGY                           :           -0.310E+00
INST. TEMPERATURE                      :            0.719E+03

ITERATION                              :               1000
TIME                                   :            0.700E+04
POSITION                               :            0.357E-02  -0.532E-02
VELOCITY                               :            0.146E-03   0.158E-03
ACCLERATION                            :           -0.108E-05  -0.757E-06
KINETIC ENERGY                         :            0.212E-02
POTENTIAL ENERGY                       :           -0.312E+00
TOTAL ENERGY                           :           -0.310E+00
INST. TEMPERATURE                      :            0.668E+03

 *************************************************
 *                 TOYCODE-1.0                   *
 *                                               *
 *      A MD PLATFORM FOR TESTING ENHANCED       *
 *      SAMPLING ALGORITHMS.                     *
 *                                               *
 *      DEVELOPED BY VENKAT KAPIL                *
 *      CONTACT : venkat@iitk.ac.in              *
 *                                               *
 *      COPYRIGHT (C) 2014 VENKAT KAPIL          *
 *      SOME RIGHTS RESERVED.                    *
 *                                               *
 !************************************************

