 *************************************************
 *                 TOYCODE-1.0                   *
 *                                               *
 *      A MD PLATFORM FOR TESTING ENHANCED       *
 *      SAMPLING ALGORITHMS.                     *
 *                                               *
 *      DEVELOPED BY VENKAT KAPIL                *
 *      CONTACT : venkat@iitk.ac.in              *
 *                                               *
 *      COPYRIGHT (C) 2014 VENKAT KAPIL          *
 *      SOME RIGHTS RESERVED.                    *
 *                                               *
 !************************************************

 MOLECULAR DYNAMICS PARAMETERS:
TEMPERATURE                            :            0.950E-03
MASS                                   :            0.911E+05
NUMBER OF DIMENSIONS                   :                  2
NUMBER OF WELLS                        :                  3
ENERGY BARRIER                         :            0.143E-01
TIMESTEP                               :            0.700E+01
MD STEPS                               :               1000
THERMOSTAT                             :                  T

 METADYNAMICS PARAMETERS:
NUMBER OF DIMENSIONS                   :                  2
CV COMPONENTS                          :                  1         2
WIDTH OF GAUSSIAN                      :            0.500E-02
INITIAL HEIGHT OF GAUSSIAN             :            0.100E-02
METADYNAMICS STEPS                     :            4000000
MIN AND MAX METADYNAMICS STEPS         :                100       100

 FORCEFIELD PARAMETERS:
 MINIMUM POTENTIAL:  2.850175760838585E-002
 COEFFICIENT:   139.298470287374     
 LOCATION OF WELL:   0.00000000000000        0.00000000000000     

 MINIMUM POTENTIAL:  2.850175760838585E-002
 COEFFICIENT:   139.298470287374     
 LOCATION OF WELL:  0.216056336002155        0.00000000000000     

 MINIMUM POTENTIAL:  2.850175760838585E-002
 COEFFICIENT:   139.298470287374     
 LOCATION OF WELL:   0.00000000000000       0.179580942806497     

 MINIMUM POTENTIAL:  2.850175760838585E-002
 COEFFICIENT:   13.9298470287374     
 LOCATION OF WELL:  0.108028168001078       8.979047140324870E-002

ITERATION                              :                  0
TIME                                   :            0.000E+00
POSITION                               :            0.000E+00   0.000E+00
VELOCITY                               :           -0.130E-03  -0.621E-04
ACCLERATION                            :            0.744E-06   0.770E-06
KINETIC ENERGY                         :            0.950E-03
POTENTIAL ENERGY                       :           -0.505E-01
TOTAL ENERGY                           :           -0.496E-01
INST. TEMPERATURE                      :            0.300E+03

ITERATION                              :                  1
TIME                                   :            0.700E+01
POSITION                               :           -0.895E-03  -0.416E-03
VELOCITY                               :           -0.125E-03  -0.566E-04
ACCLERATION                            :            0.824E-06   0.803E-06
KINETIC ENERGY                         :            0.856E-03
POTENTIAL ENERGY                       :           -0.504E-01
TOTAL ENERGY                           :           -0.496E-01
INST. TEMPERATURE                      :            0.270E+03

ITERATION                              :                  2
TIME                                   :            0.140E+02
POSITION                               :           -0.175E-02  -0.792E-03
VELOCITY                               :           -0.119E-03  -0.509E-04
ACCLERATION                            :            0.901E-06   0.834E-06
KINETIC ENERGY                         :            0.761E-03
POTENTIAL ENERGY                       :           -0.503E-01
TOTAL ENERGY                           :           -0.496E-01
INST. TEMPERATURE                      :            0.240E+03

ITERATION                              :                  3
TIME                                   :            0.210E+02
POSITION                               :           -0.256E-02  -0.113E-02
VELOCITY                               :           -0.112E-03  -0.449E-04
ACCLERATION                            :            0.974E-06   0.860E-06
KINETIC ENERGY                         :            0.666E-03
POTENTIAL ENERGY                       :           -0.502E-01
TOTAL ENERGY                           :           -0.496E-01
INST. TEMPERATURE                      :            0.210E+03

ITERATION                              :                  4
TIME                                   :            0.280E+02
POSITION                               :           -0.332E-02  -0.142E-02
VELOCITY                               :           -0.105E-03  -0.388E-04
ACCLERATION                            :            0.104E-05   0.884E-06
KINETIC ENERGY                         :            0.573E-03
POTENTIAL ENERGY                       :           -0.501E-01
TOTAL ENERGY                           :           -0.496E-01
INST. TEMPERATURE                      :            0.181E+03

ITERATION                              :                  5
TIME                                   :            0.350E+02
POSITION                               :           -0.403E-02  -0.167E-02
VELOCITY                               :           -0.977E-04  -0.326E-04
ACCLERATION                            :            0.111E-05   0.903E-06
KINETIC ENERGY                         :            0.483E-03
POTENTIAL ENERGY                       :           -0.500E-01
TOTAL ENERGY                           :           -0.496E-01
INST. TEMPERATURE                      :            0.153E+03

ITERATION                              :                  6
TIME                                   :            0.420E+02
POSITION                               :           -0.469E-02  -0.188E-02
VELOCITY                               :           -0.898E-04  -0.262E-04
ACCLERATION                            :            0.117E-05   0.919E-06
KINETIC ENERGY                         :            0.398E-03
POTENTIAL ENERGY                       :           -0.500E-01
TOTAL ENERGY                           :           -0.496E-01
INST. TEMPERATURE                      :            0.126E+03

ITERATION                              :                  7
TIME                                   :            0.490E+02
POSITION                               :           -0.529E-02  -0.204E-02
VELOCITY                               :           -0.814E-04  -0.197E-04
ACCLERATION                            :            0.122E-05   0.931E-06
KINETIC ENERGY                         :            0.320E-03
POTENTIAL ENERGY                       :           -0.499E-01
TOTAL ENERGY                           :           -0.496E-01
INST. TEMPERATURE                      :            0.101E+03

ITERATION                              :                  8
TIME                                   :            0.560E+02
POSITION                               :           -0.583E-02  -0.215E-02
VELOCITY                               :           -0.727E-04  -0.132E-04
ACCLERATION                            :            0.127E-05   0.940E-06
KINETIC ENERGY                         :            0.249E-03
POTENTIAL ENERGY                       :           -0.498E-01
TOTAL ENERGY                           :           -0.496E-01
INST. TEMPERATURE                      :            0.786E+02

ITERATION                              :                  9
TIME                                   :            0.630E+02
POSITION                               :           -0.631E-02  -0.222E-02
VELOCITY                               :           -0.637E-04  -0.656E-05
ACCLERATION                            :            0.131E-05   0.945E-06
KINETIC ENERGY                         :            0.187E-03
POTENTIAL ENERGY                       :           -0.498E-01
TOTAL ENERGY                           :           -0.496E-01
INST. TEMPERATURE                      :            0.590E+02

ITERATION                              :                 10
TIME                                   :            0.700E+02
POSITION                               :           -0.672E-02  -0.224E-02
VELOCITY                               :           -0.544E-04   0.500E-07
ACCLERATION                            :            0.135E-05   0.945E-06
KINETIC ENERGY                         :            0.135E-03
POTENTIAL ENERGY                       :           -0.497E-01
TOTAL ENERGY                           :           -0.496E-01
INST. TEMPERATURE                      :            0.426E+02

ITERATION                              :                 11
TIME                                   :            0.770E+02
POSITION                               :           -0.707E-02  -0.222E-02
VELOCITY                               :           -0.382E-04  -0.139E-03
ACCLERATION                            :            0.138E-05   0.943E-06
KINETIC ENERGY                         :            0.937E-04
POTENTIAL ENERGY                       :           -0.497E-01
TOTAL ENERGY                           :           -0.496E-01
INST. TEMPERATURE                      :            0.296E+02

ITERATION                              :                 12
TIME                                   :            0.840E+02
POSITION                               :           -0.730E-02  -0.317E-02
VELOCITY                               :           -0.285E-04  -0.132E-03
ACCLERATION                            :            0.140E-05   0.102E-05
KINETIC ENERGY                         :            0.835E-03
POTENTIAL ENERGY                       :           -0.495E-01
TOTAL ENERGY                           :           -0.487E-01
INST. TEMPERATURE                      :            0.264E+03

ITERATION                              :                 13
TIME                                   :            0.910E+02
POSITION                               :           -0.747E-02  -0.407E-02
VELOCITY                               :           -0.187E-04  -0.125E-03
ACCLERATION                            :            0.141E-05   0.110E-05
KINETIC ENERGY                         :            0.727E-03
POTENTIAL ENERGY                       :           -0.494E-01
TOTAL ENERGY                           :           -0.487E-01
INST. TEMPERATURE                      :            0.230E+03

ITERATION                              :                 14
TIME                                   :            0.980E+02
POSITION                               :           -0.756E-02  -0.492E-02
VELOCITY                               :           -0.883E-05  -0.117E-03
ACCLERATION                            :            0.141E-05   0.117E-05
KINETIC ENERGY                         :            0.628E-03
POTENTIAL ENERGY                       :           -0.493E-01
TOTAL ENERGY                           :           -0.487E-01
INST. TEMPERATURE                      :            0.198E+03

ITERATION                              :                 15
TIME                                   :            0.105E+03
POSITION                               :           -0.759E-02  -0.571E-02
VELOCITY                               :            0.106E-05  -0.109E-03
ACCLERATION                            :            0.141E-05   0.123E-05
KINETIC ENERGY                         :            0.538E-03
POTENTIAL ENERGY                       :           -0.492E-01
TOTAL ENERGY                           :           -0.487E-01
INST. TEMPERATURE                      :            0.170E+03

ITERATION                              :                 16
TIME                                   :            0.112E+03
POSITION                               :           -0.755E-02  -0.644E-02
VELOCITY                               :            0.109E-04  -0.998E-04
ACCLERATION                            :            0.141E-05   0.130E-05
KINETIC ENERGY                         :            0.459E-03
POTENTIAL ENERGY                       :           -0.492E-01
TOTAL ENERGY                           :           -0.487E-01
INST. TEMPERATURE                      :            0.145E+03

ITERATION                              :                 17
TIME                                   :            0.119E+03
POSITION                               :           -0.744E-02  -0.711E-02
VELOCITY                               :            0.208E-04  -0.905E-04
ACCLERATION                            :            0.140E-05   0.135E-05
KINETIC ENERGY                         :            0.393E-03
POTENTIAL ENERGY                       :           -0.491E-01
TOTAL ENERGY                           :           -0.487E-01
INST. TEMPERATURE                      :            0.124E+03

ITERATION                              :                 18
TIME                                   :            0.126E+03
POSITION                               :           -0.726E-02  -0.771E-02
VELOCITY                               :            0.305E-04  -0.809E-04
ACCLERATION                            :            0.138E-05   0.140E-05
KINETIC ENERGY                         :            0.340E-03
POTENTIAL ENERGY                       :           -0.490E-01
TOTAL ENERGY                           :           -0.487E-01
INST. TEMPERATURE                      :            0.107E+03

ITERATION                              :                 19
TIME                                   :            0.133E+03
POSITION                               :           -0.701E-02  -0.824E-02
VELOCITY                               :            0.400E-04  -0.709E-04
ACCLERATION                            :            0.135E-05   0.145E-05
KINETIC ENERGY                         :            0.302E-03
POTENTIAL ENERGY                       :           -0.490E-01
TOTAL ENERGY                           :           -0.487E-01
INST. TEMPERATURE                      :            0.953E+02

ITERATION                              :                 20
TIME                                   :            0.140E+03
POSITION                               :           -0.670E-02  -0.870E-02
VELOCITY                               :            0.494E-04  -0.606E-04
ACCLERATION                            :            0.132E-05   0.149E-05
KINETIC ENERGY                         :            0.278E-03
POTENTIAL ENERGY                       :           -0.490E-01
TOTAL ENERGY                           :           -0.487E-01
INST. TEMPERATURE                      :            0.879E+02

ITERATION                              :                 21
TIME                                   :            0.147E+03
POSITION                               :           -0.632E-02  -0.909E-02
VELOCITY                               :            0.585E-04  -0.501E-04
ACCLERATION                            :            0.129E-05   0.152E-05
KINETIC ENERGY                         :            0.270E-03
POTENTIAL ENERGY                       :           -0.490E-01
TOTAL ENERGY                           :           -0.487E-01
INST. TEMPERATURE                      :            0.853E+02

ITERATION                              :                 22
TIME                                   :            0.154E+03
POSITION                               :           -0.588E-02  -0.940E-02
VELOCITY                               :           -0.143E-03  -0.234E-04
ACCLERATION                            :            0.125E-05   0.155E-05
KINETIC ENERGY                         :            0.278E-03
POTENTIAL ENERGY                       :           -0.490E-01
TOTAL ENERGY                           :           -0.487E-01
INST. TEMPERATURE                      :            0.876E+02

ITERATION                              :                 23
TIME                                   :            0.161E+03
POSITION                               :           -0.685E-02  -0.953E-02
VELOCITY                               :           -0.133E-03  -0.125E-04
ACCLERATION                            :            0.133E-05   0.156E-05
KINETIC ENERGY                         :            0.819E-03
POTENTIAL ENERGY                       :           -0.489E-01
TOTAL ENERGY                           :           -0.480E-01
INST. TEMPERATURE                      :            0.258E+03

ITERATION                              :                 24
TIME                                   :            0.168E+03
POSITION                               :           -0.775E-02  -0.958E-02
VELOCITY                               :           -0.124E-03  -0.161E-05
ACCLERATION                            :            0.141E-05   0.156E-05
KINETIC ENERGY                         :            0.699E-03
POTENTIAL ENERGY                       :           -0.487E-01
TOTAL ENERGY                           :           -0.480E-01
INST. TEMPERATURE                      :            0.221E+03

ITERATION                              :                 25
TIME                                   :            0.175E+03
POSITION                               :           -0.858E-02  -0.955E-02
VELOCITY                               :           -0.114E-03   0.926E-05
ACCLERATION                            :            0.149E-05   0.155E-05
KINETIC ENERGY                         :            0.593E-03
POTENTIAL ENERGY                       :           -0.486E-01
TOTAL ENERGY                           :           -0.480E-01
INST. TEMPERATURE                      :            0.187E+03

ITERATION                              :                 26
TIME                                   :            0.182E+03
POSITION                               :           -0.934E-02  -0.945E-02
VELOCITY                               :           -0.103E-03   0.201E-04
ACCLERATION                            :            0.155E-05   0.154E-05
KINETIC ENERGY                         :            0.502E-03
POTENTIAL ENERGY                       :           -0.485E-01
TOTAL ENERGY                           :           -0.480E-01
INST. TEMPERATURE                      :            0.159E+03

ITERATION                              :                 27
TIME                                   :            0.189E+03
POSITION                               :           -0.100E-01  -0.927E-02
VELOCITY                               :           -0.920E-04   0.308E-04
ACCLERATION                            :            0.161E-05   0.152E-05
KINETIC ENERGY                         :            0.429E-03
POTENTIAL ENERGY                       :           -0.485E-01
TOTAL ENERGY                           :           -0.480E-01
INST. TEMPERATURE                      :            0.135E+03

ITERATION                              :                 28
TIME                                   :            0.196E+03
POSITION                               :           -0.106E-01  -0.902E-02
VELOCITY                               :           -0.805E-04   0.414E-04
ACCLERATION                            :            0.167E-05   0.150E-05
KINETIC ENERGY                         :            0.373E-03
POTENTIAL ENERGY                       :           -0.484E-01
TOTAL ENERGY                           :           -0.480E-01
INST. TEMPERATURE                      :            0.118E+03

ITERATION                              :                 29
TIME                                   :            0.203E+03
POSITION                               :           -0.112E-01  -0.869E-02
VELOCITY                               :           -0.687E-04   0.517E-04
ACCLERATION                            :            0.171E-05   0.147E-05
KINETIC ENERGY                         :            0.337E-03
POTENTIAL ENERGY                       :           -0.484E-01
TOTAL ENERGY                           :           -0.480E-01
INST. TEMPERATURE                      :            0.106E+03

ITERATION                              :                 30
TIME                                   :            0.210E+03
POSITION                               :           -0.116E-01  -0.829E-02
VELOCITY                               :           -0.566E-04   0.619E-04
ACCLERATION                            :            0.175E-05   0.143E-05
KINETIC ENERGY                         :            0.320E-03
POTENTIAL ENERGY                       :           -0.484E-01
TOTAL ENERGY                           :           -0.480E-01
INST. TEMPERATURE                      :            0.101E+03

ITERATION                              :                 31
TIME                                   :            0.217E+03
POSITION                               :           -0.119E-01  -0.783E-02
VELOCITY                               :           -0.442E-04   0.718E-04
ACCLERATION                            :            0.178E-05   0.139E-05
KINETIC ENERGY                         :            0.324E-03
POTENTIAL ENERGY                       :           -0.484E-01
TOTAL ENERGY                           :           -0.480E-01
INST. TEMPERATURE                      :            0.102E+03

ITERATION                              :                 32
TIME                                   :            0.224E+03
POSITION                               :           -0.122E-01  -0.729E-02
VELOCITY                               :           -0.317E-04   0.814E-04
ACCLERATION                            :            0.181E-05   0.135E-05
KINETIC ENERGY                         :            0.347E-03
POTENTIAL ENERGY                       :           -0.484E-01
TOTAL ENERGY                           :           -0.480E-01
INST. TEMPERATURE                      :            0.110E+03

ITERATION                              :                 33
TIME                                   :            0.231E+03
POSITION                               :           -0.124E-01  -0.669E-02
VELOCITY                               :           -0.788E-04   0.121E-03
ACCLERATION                            :            0.183E-05   0.130E-05
KINETIC ENERGY                         :            0.391E-03
POTENTIAL ENERGY                       :           -0.484E-01
TOTAL ENERGY                           :           -0.480E-01
INST. TEMPERATURE                      :            0.123E+03

ITERATION                              :                 34
TIME                                   :            0.238E+03
POSITION                               :           -0.129E-01  -0.581E-02
VELOCITY                               :           -0.658E-04   0.130E-03
ACCLERATION                            :            0.187E-05   0.122E-05
KINETIC ENERGY                         :            0.966E-03
POTENTIAL ENERGY                       :           -0.484E-01
TOTAL ENERGY                           :           -0.475E-01
INST. TEMPERATURE                      :            0.305E+03

ITERATION                              :                 35
TIME                                   :            0.245E+03
POSITION                               :           -0.133E-01  -0.487E-02
VELOCITY                               :           -0.526E-04   0.138E-03
ACCLERATION                            :            0.191E-05   0.114E-05
KINETIC ENERGY                         :            0.995E-03
POTENTIAL ENERGY                       :           -0.485E-01
TOTAL ENERGY                           :           -0.475E-01
INST. TEMPERATURE                      :            0.314E+03

ITERATION                              :                 36
TIME                                   :            0.252E+03
POSITION                               :           -0.136E-01  -0.387E-02
VELOCITY                               :           -0.391E-04   0.146E-03
ACCLERATION                            :            0.194E-05   0.106E-05
KINETIC ENERGY                         :            0.104E-02
POTENTIAL ENERGY                       :           -0.485E-01
TOTAL ENERGY                           :           -0.475E-01
INST. TEMPERATURE                      :            0.328E+03

ITERATION                              :                 37
TIME                                   :            0.259E+03
POSITION                               :           -0.139E-01  -0.283E-02
VELOCITY                               :           -0.254E-04   0.153E-03
ACCLERATION                            :            0.197E-05   0.972E-06
KINETIC ENERGY                         :            0.110E-02
POTENTIAL ENERGY                       :           -0.486E-01
TOTAL ENERGY                           :           -0.475E-01
INST. TEMPERATURE                      :            0.346E+03

ITERATION                              :                 38
TIME                                   :            0.266E+03
POSITION                               :           -0.140E-01  -0.173E-02
VELOCITY                               :           -0.116E-04   0.159E-03
ACCLERATION                            :            0.198E-05   0.882E-06
KINETIC ENERGY                         :            0.116E-02
POTENTIAL ENERGY                       :           -0.486E-01
TOTAL ENERGY                           :           -0.475E-01
INST. TEMPERATURE                      :            0.368E+03

ITERATION                              :                 39
TIME                                   :            0.273E+03
POSITION                               :           -0.140E-01  -0.594E-03
VELOCITY                               :            0.225E-05   0.165E-03
ACCLERATION                            :            0.199E-05   0.788E-06
KINETIC ENERGY                         :            0.124E-02
POTENTIAL ENERGY                       :           -0.487E-01
TOTAL ENERGY                           :           -0.475E-01
INST. TEMPERATURE                      :            0.393E+03

ITERATION                              :                 40
TIME                                   :            0.280E+03
POSITION                               :           -0.140E-01   0.583E-03
VELOCITY                               :            0.161E-04   0.170E-03
ACCLERATION                            :            0.198E-05   0.691E-06
KINETIC ENERGY                         :            0.134E-02
POTENTIAL ENERGY                       :           -0.488E-01
TOTAL ENERGY                           :           -0.475E-01
INST. TEMPERATURE                      :            0.422E+03

ITERATION                              :                 41
TIME                                   :            0.287E+03
POSITION                               :           -0.138E-01   0.179E-02
VELOCITY                               :            0.300E-04   0.175E-03
ACCLERATION                            :            0.197E-05   0.592E-06
KINETIC ENERGY                         :            0.144E-02
POTENTIAL ENERGY                       :           -0.489E-01
TOTAL ENERGY                           :           -0.475E-01
INST. TEMPERATURE                      :            0.453E+03

ITERATION                              :                 42
TIME                                   :            0.294E+03
POSITION                               :           -0.135E-01   0.303E-02
VELOCITY                               :            0.437E-04   0.179E-03
ACCLERATION                            :            0.195E-05   0.492E-06
KINETIC ENERGY                         :            0.154E-02
POTENTIAL ENERGY                       :           -0.490E-01
TOTAL ENERGY                           :           -0.475E-01
INST. TEMPERATURE                      :            0.487E+03

ITERATION                              :                 43
TIME                                   :            0.301E+03
POSITION                               :           -0.132E-01   0.430E-02
VELOCITY                               :            0.573E-04   0.182E-03
ACCLERATION                            :            0.192E-05   0.390E-06
KINETIC ENERGY                         :            0.166E-02
POTENTIAL ENERGY                       :           -0.491E-01
TOTAL ENERGY                           :           -0.475E-01
INST. TEMPERATURE                      :            0.523E+03

ITERATION                              :                 44
TIME                                   :            0.308E+03
POSITION                               :           -0.127E-01   0.558E-02
VELOCITY                               :            0.140E-03  -0.372E-04
ACCLERATION                            :            0.189E-05   0.288E-06
KINETIC ENERGY                         :            0.177E-02
POTENTIAL ENERGY                       :           -0.492E-01
TOTAL ENERGY                           :           -0.475E-01
INST. TEMPERATURE                      :            0.560E+03

ITERATION                              :                 45
TIME                                   :            0.315E+03
POSITION                               :           -0.117E-01   0.532E-02
VELOCITY                               :            0.152E-03  -0.351E-04
ACCLERATION                            :            0.180E-05   0.309E-06
KINETIC ENERGY                         :            0.111E-02
POTENTIAL ENERGY                       :           -0.494E-01
TOTAL ENERGY                           :           -0.483E-01
INST. TEMPERATURE                      :            0.352E+03

ITERATION                              :                 46
TIME                                   :            0.322E+03
POSITION                               :           -0.106E-01   0.509E-02
VELOCITY                               :            0.165E-03  -0.329E-04
ACCLERATION                            :            0.170E-05   0.329E-06
KINETIC ENERGY                         :            0.129E-02
POTENTIAL ENERGY                       :           -0.496E-01
TOTAL ENERGY                           :           -0.483E-01
INST. TEMPERATURE                      :            0.406E+03

ITERATION                              :                 47
TIME                                   :            0.329E+03
POSITION                               :           -0.940E-02   0.486E-02
VELOCITY                               :            0.176E-03  -0.305E-04
ACCLERATION                            :            0.160E-05   0.349E-06
KINETIC ENERGY                         :            0.146E-02
POTENTIAL ENERGY                       :           -0.498E-01
TOTAL ENERGY                           :           -0.483E-01
INST. TEMPERATURE                      :            0.460E+03

ITERATION                              :                 48
TIME                                   :            0.336E+03
POSITION                               :           -0.813E-02   0.466E-02
VELOCITY                               :            0.187E-03  -0.280E-04
ACCLERATION                            :            0.149E-05   0.367E-06
KINETIC ENERGY                         :            0.163E-02
POTENTIAL ENERGY                       :           -0.499E-01
TOTAL ENERGY                           :           -0.483E-01
INST. TEMPERATURE                      :            0.515E+03

ITERATION                              :                 49
TIME                                   :            0.343E+03
POSITION                               :           -0.678E-02   0.447E-02
VELOCITY                               :            0.197E-03  -0.254E-04
ACCLERATION                            :            0.137E-05   0.384E-06
KINETIC ENERGY                         :            0.180E-02
POTENTIAL ENERGY                       :           -0.501E-01
TOTAL ENERGY                           :           -0.483E-01
INST. TEMPERATURE                      :            0.568E+03

ITERATION                              :                 50
TIME                                   :            0.350E+03
POSITION                               :           -0.537E-02   0.430E-02
VELOCITY                               :            0.206E-03  -0.226E-04
ACCLERATION                            :            0.124E-05   0.400E-06
KINETIC ENERGY                         :            0.196E-02
POTENTIAL ENERGY                       :           -0.503E-01
TOTAL ENERGY                           :           -0.483E-01
INST. TEMPERATURE                      :            0.619E+03

ITERATION                              :                 51
TIME                                   :            0.357E+03
POSITION                               :           -0.390E-02   0.415E-02
VELOCITY                               :            0.214E-03  -0.198E-04
ACCLERATION                            :            0.111E-05   0.415E-06
KINETIC ENERGY                         :            0.211E-02
POTENTIAL ENERGY                       :           -0.504E-01
TOTAL ENERGY                           :           -0.483E-01
INST. TEMPERATURE                      :            0.667E+03

ITERATION                              :                 52
TIME                                   :            0.364E+03
POSITION                               :           -0.237E-02   0.403E-02
VELOCITY                               :            0.222E-03  -0.168E-04
ACCLERATION                            :            0.966E-06   0.428E-06
KINETIC ENERGY                         :            0.225E-02
POTENTIAL ENERGY                       :           -0.506E-01
TOTAL ENERGY                           :           -0.483E-01
INST. TEMPERATURE                      :            0.711E+03

ITERATION                              :                 53
TIME                                   :            0.371E+03
POSITION                               :           -0.795E-03   0.392E-02
VELOCITY                               :            0.228E-03  -0.138E-04
ACCLERATION                            :            0.823E-06   0.440E-06
KINETIC ENERGY                         :            0.237E-02
POTENTIAL ENERGY                       :           -0.507E-01
TOTAL ENERGY                           :           -0.483E-01
INST. TEMPERATURE                      :            0.750E+03

ITERATION                              :                 54
TIME                                   :            0.378E+03
POSITION                               :            0.821E-03   0.383E-02
VELOCITY                               :            0.233E-03  -0.107E-04
ACCLERATION                            :            0.675E-06   0.449E-06
KINETIC ENERGY                         :            0.248E-02
POTENTIAL ENERGY                       :           -0.508E-01
TOTAL ENERGY                           :           -0.483E-01
INST. TEMPERATURE                      :            0.783E+03

ITERATION                              :                 55
TIME                                   :            0.385E+03
POSITION                               :            0.247E-02   0.377E-02
VELOCITY                               :           -0.144E-03  -0.155E-04
ACCLERATION                            :            0.525E-06   0.458E-06
KINETIC ENERGY                         :            0.257E-02
POTENTIAL ENERGY                       :           -0.509E-01
TOTAL ENERGY                           :           -0.483E-01
INST. TEMPERATURE                      :            0.811E+03

ITERATION                              :                 56
TIME                                   :            0.392E+03
POSITION                               :            0.148E-02   0.367E-02
VELOCITY                               :           -0.140E-03  -0.122E-04
ACCLERATION                            :            0.615E-06   0.464E-06
KINETIC ENERGY                         :            0.894E-03
POTENTIAL ENERGY                       :           -0.508E-01
TOTAL ENERGY                           :           -0.499E-01
INST. TEMPERATURE                      :            0.282E+03

ITERATION                              :                 57
TIME                                   :            0.399E+03
POSITION                               :            0.515E-03   0.360E-02
VELOCITY                               :           -0.135E-03  -0.897E-05
ACCLERATION                            :            0.703E-06   0.468E-06
KINETIC ENERGY                         :            0.834E-03
POTENTIAL ENERGY                       :           -0.508E-01
TOTAL ENERGY                           :           -0.499E-01
INST. TEMPERATURE                      :            0.263E+03

ITERATION                              :                 58
TIME                                   :            0.406E+03
POSITION                               :           -0.413E-03   0.355E-02
VELOCITY                               :           -0.130E-03  -0.569E-05
ACCLERATION                            :            0.787E-06   0.471E-06
KINETIC ENERGY                         :            0.769E-03
POTENTIAL ENERGY                       :           -0.507E-01
TOTAL ENERGY                           :           -0.499E-01
INST. TEMPERATURE                      :            0.243E+03

ITERATION                              :                 59
TIME                                   :            0.413E+03
POSITION                               :           -0.130E-02   0.352E-02
VELOCITY                               :           -0.124E-03  -0.238E-05
ACCLERATION                            :            0.868E-06   0.472E-06
KINETIC ENERGY                         :            0.700E-03
POTENTIAL ENERGY                       :           -0.506E-01
TOTAL ENERGY                           :           -0.499E-01
INST. TEMPERATURE                      :            0.221E+03

ITERATION                              :                 60
TIME                                   :            0.420E+03
POSITION                               :           -0.215E-02   0.351E-02
VELOCITY                               :           -0.118E-03   0.916E-06
ACCLERATION                            :            0.945E-06   0.471E-06
KINETIC ENERGY                         :            0.630E-03
POTENTIAL ENERGY                       :           -0.505E-01
TOTAL ENERGY                           :           -0.499E-01
INST. TEMPERATURE                      :            0.199E+03

ITERATION                              :                 61
TIME                                   :            0.427E+03
POSITION                               :           -0.295E-02   0.353E-02
VELOCITY                               :           -0.111E-03   0.420E-05
ACCLERATION                            :            0.102E-05   0.468E-06
KINETIC ENERGY                         :            0.560E-03
POTENTIAL ENERGY                       :           -0.505E-01
TOTAL ENERGY                           :           -0.499E-01
INST. TEMPERATURE                      :            0.177E+03

ITERATION                              :                 62
TIME                                   :            0.434E+03
POSITION                               :           -0.370E-02   0.357E-02
VELOCITY                               :           -0.103E-03   0.746E-05
ACCLERATION                            :            0.109E-05   0.464E-06
KINETIC ENERGY                         :            0.489E-03
POTENTIAL ENERGY                       :           -0.504E-01
TOTAL ENERGY                           :           -0.499E-01
INST. TEMPERATURE                      :            0.155E+03

ITERATION                              :                 63
TIME                                   :            0.441E+03
POSITION                               :           -0.440E-02   0.363E-02
VELOCITY                               :           -0.956E-04   0.107E-04
ACCLERATION                            :            0.115E-05   0.457E-06
KINETIC ENERGY                         :            0.421E-03
POTENTIAL ENERGY                       :           -0.503E-01
TOTAL ENERGY                           :           -0.499E-01
INST. TEMPERATURE                      :            0.133E+03

ITERATION                              :                 64
TIME                                   :            0.448E+03
POSITION                               :           -0.504E-02   0.372E-02
VELOCITY                               :           -0.873E-04   0.139E-04
ACCLERATION                            :            0.121E-05   0.449E-06
KINETIC ENERGY                         :            0.356E-03
POTENTIAL ENERGY                       :           -0.503E-01
TOTAL ENERGY                           :           -0.499E-01
INST. TEMPERATURE                      :            0.112E+03

ITERATION                              :                 65
TIME                                   :            0.455E+03
POSITION                               :           -0.562E-02   0.383E-02
VELOCITY                               :           -0.787E-04   0.170E-04
ACCLERATION                            :            0.126E-05   0.439E-06
KINETIC ENERGY                         :            0.295E-03
POTENTIAL ENERGY                       :           -0.502E-01
TOTAL ENERGY                           :           -0.499E-01
INST. TEMPERATURE                      :            0.932E+02

ITERATION                              :                 66
TIME                                   :            0.462E+03
POSITION                               :           -0.614E-02   0.396E-02
VELOCITY                               :            0.138E-03   0.418E-04
ACCLERATION                            :            0.131E-05   0.428E-06
KINETIC ENERGY                         :            0.239E-03
POTENTIAL ENERGY                       :           -0.502E-01
TOTAL ENERGY                           :           -0.499E-01
INST. TEMPERATURE                      :            0.756E+02

ITERATION                              :                 67
TIME                                   :            0.469E+03
POSITION                               :           -0.514E-02   0.426E-02
VELOCITY                               :            0.147E-03   0.447E-04
ACCLERATION                            :            0.122E-05   0.404E-06
KINETIC ENERGY                         :            0.108E-02
POTENTIAL ENERGY                       :           -0.503E-01
TOTAL ENERGY                           :           -0.492E-01
INST. TEMPERATURE                      :            0.340E+03

ITERATION                              :                 68
TIME                                   :            0.476E+03
POSITION                               :           -0.408E-02   0.458E-02
VELOCITY                               :            0.155E-03   0.475E-04
ACCLERATION                            :            0.112E-05   0.379E-06
KINETIC ENERGY                         :            0.120E-02
POTENTIAL ENERGY                       :           -0.504E-01
TOTAL ENERGY                           :           -0.492E-01
INST. TEMPERATURE                      :            0.379E+03

ITERATION                              :                 69
TIME                                   :            0.483E+03
POSITION                               :           -0.297E-02   0.493E-02
VELOCITY                               :            0.163E-03   0.500E-04
ACCLERATION                            :            0.102E-05   0.353E-06
KINETIC ENERGY                         :            0.132E-02
POTENTIAL ENERGY                       :           -0.505E-01
TOTAL ENERGY                           :           -0.492E-01
INST. TEMPERATURE                      :            0.417E+03

ITERATION                              :                 70
TIME                                   :            0.490E+03
POSITION                               :           -0.180E-02   0.529E-02
VELOCITY                               :            0.170E-03   0.524E-04
ACCLERATION                            :            0.917E-06   0.325E-06
KINETIC ENERGY                         :            0.143E-02
POTENTIAL ENERGY                       :           -0.506E-01
TOTAL ENERGY                           :           -0.492E-01
INST. TEMPERATURE                      :            0.453E+03

ITERATION                              :                 71
TIME                                   :            0.497E+03
POSITION                               :           -0.592E-03   0.566E-02
VELOCITY                               :            0.176E-03   0.546E-04
ACCLERATION                            :            0.807E-06   0.296E-06
KINETIC ENERGY                         :            0.154E-02
POTENTIAL ENERGY                       :           -0.507E-01
TOTAL ENERGY                           :           -0.492E-01
INST. TEMPERATURE                      :            0.486E+03

ITERATION                              :                 72
TIME                                   :            0.504E+03
POSITION                               :            0.657E-03   0.605E-02
VELOCITY                               :            0.181E-03   0.566E-04
ACCLERATION                            :            0.694E-06   0.266E-06
KINETIC ENERGY                         :            0.164E-02
POTENTIAL ENERGY                       :           -0.508E-01
TOTAL ENERGY                           :           -0.492E-01
INST. TEMPERATURE                      :            0.516E+03

ITERATION                              :                 73
TIME                                   :            0.511E+03
POSITION                               :            0.194E-02   0.645E-02
VELOCITY                               :            0.185E-03   0.583E-04
ACCLERATION                            :            0.578E-06   0.236E-06
KINETIC ENERGY                         :            0.172E-02
POTENTIAL ENERGY                       :           -0.509E-01
TOTAL ENERGY                           :           -0.492E-01
INST. TEMPERATURE                      :            0.543E+03

ITERATION                              :                 74
TIME                                   :            0.518E+03
POSITION                               :            0.325E-02   0.687E-02
VELOCITY                               :            0.189E-03   0.599E-04
ACCLERATION                            :            0.460E-06   0.205E-06
KINETIC ENERGY                         :            0.179E-02
POTENTIAL ENERGY                       :           -0.510E-01
TOTAL ENERGY                           :           -0.492E-01
INST. TEMPERATURE                      :            0.565E+03

ITERATION                              :                 75
TIME                                   :            0.525E+03
POSITION                               :            0.459E-02   0.729E-02
VELOCITY                               :            0.192E-03   0.612E-04
ACCLERATION                            :            0.341E-06   0.173E-06
KINETIC ENERGY                         :            0.184E-02
POTENTIAL ENERGY                       :           -0.511E-01
TOTAL ENERGY                           :           -0.492E-01
INST. TEMPERATURE                      :            0.583E+03

ITERATION                              :                 76
TIME                                   :            0.532E+03
POSITION                               :            0.594E-02   0.772E-02
VELOCITY                               :            0.194E-03   0.623E-04
ACCLERATION                            :            0.220E-06   0.141E-06
KINETIC ENERGY                         :            0.189E-02
POTENTIAL ENERGY                       :           -0.511E-01
TOTAL ENERGY                           :           -0.492E-01
INST. TEMPERATURE                      :            0.595E+03

ITERATION                              :                 77
TIME                                   :            0.539E+03
POSITION                               :            0.730E-02   0.816E-02
VELOCITY                               :            0.137E-03   0.445E-04
ACCLERATION                            :            0.100E-06   0.109E-06
KINETIC ENERGY                         :            0.191E-02
POTENTIAL ENERGY                       :           -0.511E-01
TOTAL ENERGY                           :           -0.492E-01
INST. TEMPERATURE                      :            0.603E+03

ITERATION                              :                 78
TIME                                   :            0.546E+03
POSITION                               :            0.826E-02   0.848E-02
VELOCITY                               :            0.138E-03   0.452E-04
ACCLERATION                            :            0.160E-07   0.866E-07
KINETIC ENERGY                         :            0.958E-03
POTENTIAL ENERGY                       :           -0.511E-01
TOTAL ENERGY                           :           -0.502E-01
INST. TEMPERATURE                      :            0.302E+03

ITERATION                              :                 79
TIME                                   :            0.553E+03
POSITION                               :            0.923E-02   0.880E-02
VELOCITY                               :            0.138E-03   0.457E-04
ACCLERATION                            :           -0.677E-07   0.639E-07
KINETIC ENERGY                         :            0.958E-03
POTENTIAL ENERGY                       :           -0.511E-01
TOTAL ENERGY                           :           -0.502E-01
INST. TEMPERATURE                      :            0.302E+03

ITERATION                              :                 80
TIME                                   :            0.560E+03
POSITION                               :            0.102E-01   0.912E-02
VELOCITY                               :            0.137E-03   0.461E-04
ACCLERATION                            :           -0.150E-06   0.414E-07
KINETIC ENERGY                         :            0.950E-03
POTENTIAL ENERGY                       :           -0.511E-01
TOTAL ENERGY                           :           -0.502E-01
INST. TEMPERATURE                      :            0.300E+03

ITERATION                              :                 81
TIME                                   :            0.567E+03
POSITION                               :            0.111E-01   0.944E-02
VELOCITY                               :            0.136E-03   0.463E-04
ACCLERATION                            :           -0.232E-06   0.190E-07
KINETIC ENERGY                         :            0.934E-03
POTENTIAL ENERGY                       :           -0.511E-01
TOTAL ENERGY                           :           -0.502E-01
INST. TEMPERATURE                      :            0.295E+03

ITERATION                              :                 82
TIME                                   :            0.574E+03
POSITION                               :            0.121E-01   0.977E-02
VELOCITY                               :            0.134E-03   0.464E-04
ACCLERATION                            :           -0.311E-06  -0.324E-08
KINETIC ENERGY                         :            0.911E-03
POTENTIAL ENERGY                       :           -0.511E-01
TOTAL ENERGY                           :           -0.502E-01
INST. TEMPERATURE                      :            0.288E+03

ITERATION                              :                 83
TIME                                   :            0.581E+03
POSITION                               :            0.130E-01   0.101E-01
VELOCITY                               :            0.131E-03   0.463E-04
ACCLERATION                            :           -0.388E-06  -0.251E-07
KINETIC ENERGY                         :            0.881E-03
POTENTIAL ENERGY                       :           -0.510E-01
TOTAL ENERGY                           :           -0.502E-01
INST. TEMPERATURE                      :            0.278E+03

ITERATION                              :                 84
TIME                                   :            0.588E+03
POSITION                               :            0.139E-01   0.104E-01
VELOCITY                               :            0.128E-03   0.460E-04
ACCLERATION                            :           -0.463E-06  -0.466E-07
KINETIC ENERGY                         :            0.845E-03
POTENTIAL ENERGY                       :           -0.510E-01
TOTAL ENERGY                           :           -0.502E-01
INST. TEMPERATURE                      :            0.267E+03

ITERATION                              :                 85
TIME                                   :            0.595E+03
POSITION                               :            0.148E-01   0.107E-01
VELOCITY                               :            0.125E-03   0.456E-04
ACCLERATION                            :           -0.534E-06  -0.677E-07
KINETIC ENERGY                         :            0.803E-03
POTENTIAL ENERGY                       :           -0.510E-01
TOTAL ENERGY                           :           -0.502E-01
INST. TEMPERATURE                      :            0.254E+03

ITERATION                              :                 86
TIME                                   :            0.602E+03
POSITION                               :            0.157E-01   0.111E-01
VELOCITY                               :            0.121E-03   0.451E-04
ACCLERATION                            :           -0.603E-06  -0.882E-07
KINETIC ENERGY                         :            0.756E-03
POTENTIAL ENERGY                       :           -0.509E-01
TOTAL ENERGY                           :           -0.502E-01
INST. TEMPERATURE                      :            0.239E+03

ITERATION                              :                 87
TIME                                   :            0.609E+03
POSITION                               :            0.165E-01   0.114E-01
VELOCITY                               :            0.116E-03   0.444E-04
ACCLERATION                            :           -0.668E-06  -0.108E-06
KINETIC ENERGY                         :            0.706E-03
POTENTIAL ENERGY                       :           -0.509E-01
TOTAL ENERGY                           :           -0.502E-01
INST. TEMPERATURE                      :            0.223E+03

ITERATION                              :                 88
TIME                                   :            0.616E+03
POSITION                               :            0.173E-01   0.117E-01
VELOCITY                               :            0.129E-03   0.650E-04
ACCLERATION                            :           -0.730E-06  -0.128E-06
KINETIC ENERGY                         :            0.651E-03
POTENTIAL ENERGY                       :           -0.508E-01
TOTAL ENERGY                           :           -0.502E-01
INST. TEMPERATURE                      :            0.206E+03

ITERATION                              :                 89
TIME                                   :            0.623E+03
POSITION                               :            0.182E-01   0.121E-01
VELOCITY                               :            0.124E-03   0.640E-04
ACCLERATION                            :           -0.797E-06  -0.157E-06
KINETIC ENERGY                         :            0.883E-03
POTENTIAL ENERGY                       :           -0.508E-01
TOTAL ENERGY                           :           -0.499E-01
INST. TEMPERATURE                      :            0.279E+03

ITERATION                              :                 90
TIME                                   :            0.630E+03
POSITION                               :            0.190E-01   0.126E-01
VELOCITY                               :            0.118E-03   0.628E-04
ACCLERATION                            :           -0.860E-06  -0.185E-06
KINETIC ENERGY                         :            0.812E-03
POTENTIAL ENERGY                       :           -0.507E-01
TOTAL ENERGY                           :           -0.499E-01
INST. TEMPERATURE                      :            0.256E+03

ITERATION                              :                 91
TIME                                   :            0.637E+03
POSITION                               :            0.198E-01   0.130E-01
VELOCITY                               :            0.112E-03   0.614E-04
ACCLERATION                            :           -0.919E-06  -0.212E-06
KINETIC ENERGY                         :            0.739E-03
POTENTIAL ENERGY                       :           -0.506E-01
TOTAL ENERGY                           :           -0.499E-01
INST. TEMPERATURE                      :            0.233E+03

ITERATION                              :                 92
TIME                                   :            0.644E+03
POSITION                               :            0.206E-01   0.134E-01
VELOCITY                               :            0.105E-03   0.599E-04
ACCLERATION                            :           -0.973E-06  -0.238E-06
KINETIC ENERGY                         :            0.665E-03
POTENTIAL ENERGY                       :           -0.505E-01
TOTAL ENERGY                           :           -0.499E-01
INST. TEMPERATURE                      :            0.210E+03

ITERATION                              :                 93
TIME                                   :            0.651E+03
POSITION                               :            0.213E-01   0.138E-01
VELOCITY                               :            0.980E-04   0.581E-04
ACCLERATION                            :           -0.102E-05  -0.263E-06
KINETIC ENERGY                         :            0.591E-03
POTENTIAL ENERGY                       :           -0.505E-01
TOTAL ENERGY                           :           -0.499E-01
INST. TEMPERATURE                      :            0.187E+03

ITERATION                              :                 94
TIME                                   :            0.658E+03
POSITION                               :            0.220E-01   0.142E-01
VELOCITY                               :            0.907E-04   0.562E-04
ACCLERATION                            :           -0.107E-05  -0.287E-06
KINETIC ENERGY                         :            0.518E-03
POTENTIAL ENERGY                       :           -0.504E-01
TOTAL ENERGY                           :           -0.499E-01
INST. TEMPERATURE                      :            0.164E+03

ITERATION                              :                 95
TIME                                   :            0.665E+03
POSITION                               :            0.226E-01   0.146E-01
VELOCITY                               :            0.830E-04   0.541E-04
ACCLERATION                            :           -0.111E-05  -0.310E-06
KINETIC ENERGY                         :            0.447E-03
POTENTIAL ENERGY                       :           -0.503E-01
TOTAL ENERGY                           :           -0.499E-01
INST. TEMPERATURE                      :            0.141E+03

ITERATION                              :                 96
TIME                                   :            0.672E+03
POSITION                               :            0.231E-01   0.150E-01
VELOCITY                               :            0.751E-04   0.518E-04
ACCLERATION                            :           -0.115E-05  -0.332E-06
KINETIC ENERGY                         :            0.380E-03
POTENTIAL ENERGY                       :           -0.502E-01
TOTAL ENERGY                           :           -0.499E-01
INST. TEMPERATURE                      :            0.120E+03

ITERATION                              :                 97
TIME                                   :            0.679E+03
POSITION                               :            0.236E-01   0.154E-01
VELOCITY                               :            0.670E-04   0.494E-04
ACCLERATION                            :           -0.118E-05  -0.353E-06
KINETIC ENERGY                         :            0.316E-03
POTENTIAL ENERGY                       :           -0.502E-01
TOTAL ENERGY                           :           -0.499E-01
INST. TEMPERATURE                      :            0.998E+02

ITERATION                              :                 98
TIME                                   :            0.686E+03
POSITION                               :            0.241E-01   0.157E-01
VELOCITY                               :            0.587E-04   0.469E-04
ACCLERATION                            :           -0.121E-05  -0.372E-06
KINETIC ENERGY                         :            0.257E-03
POTENTIAL ENERGY                       :           -0.501E-01
TOTAL ENERGY                           :           -0.499E-01
INST. TEMPERATURE                      :            0.812E+02

ITERATION                              :                 99
TIME                                   :            0.693E+03
POSITION                               :            0.244E-01   0.160E-01
VELOCITY                               :            0.623E-04   0.130E-03
ACCLERATION                            :           -0.123E-05  -0.391E-06
KINETIC ENERGY                         :            0.204E-03
POTENTIAL ENERGY                       :           -0.501E-01
TOTAL ENERGY                           :           -0.499E-01
INST. TEMPERATURE                      :            0.643E+02

ITERATION                              :                100
TIME                                   :            0.700E+03
POSITION                               :            0.248E-01   0.169E-01
VELOCITY                               :            0.537E-04   0.127E-03
ACCLERATION                            :           -0.125E-05  -0.447E-06
KINETIC ENERGY                         :            0.870E-03
POTENTIAL ENERGY                       :           -0.500E-01
TOTAL ENERGY                           :           -0.491E-01
INST. TEMPERATURE                      :            0.275E+03

ITERATION                              :                101
TIME                                   :            0.707E+03
POSITION                               :            0.252E-01   0.178E-01
VELOCITY                               :            0.449E-04   0.124E-03
ACCLERATION                            :           -0.127E-05  -0.500E-06
KINETIC ENERGY                         :            0.792E-03
POTENTIAL ENERGY                       :           -0.499E-01
TOTAL ENERGY                           :           -0.491E-01
INST. TEMPERATURE                      :            0.250E+03

ITERATION                              :                102
TIME                                   :            0.714E+03
POSITION                               :            0.255E-01   0.187E-01
VELOCITY                               :            0.360E-04   0.120E-03
ACCLERATION                            :           -0.128E-05  -0.552E-06
KINETIC ENERGY                         :            0.719E-03
POTENTIAL ENERGY                       :           -0.498E-01
TOTAL ENERGY                           :           -0.491E-01
INST. TEMPERATURE                      :            0.227E+03

ITERATION                              :                103
TIME                                   :            0.721E+03
POSITION                               :            0.257E-01   0.195E-01
VELOCITY                               :            0.270E-04   0.116E-03
ACCLERATION                            :           -0.128E-05  -0.601E-06
KINETIC ENERGY                         :            0.649E-03
POTENTIAL ENERGY                       :           -0.498E-01
TOTAL ENERGY                           :           -0.491E-01
INST. TEMPERATURE                      :            0.205E+03

ITERATION                              :                104
TIME                                   :            0.728E+03
POSITION                               :            0.259E-01   0.203E-01
VELOCITY                               :            0.180E-04   0.112E-03
ACCLERATION                            :           -0.129E-05  -0.647E-06
KINETIC ENERGY                         :            0.586E-03
POTENTIAL ENERGY                       :           -0.497E-01
TOTAL ENERGY                           :           -0.491E-01
INST. TEMPERATURE                      :            0.185E+03

ITERATION                              :                105
TIME                                   :            0.735E+03
POSITION                               :            0.259E-01   0.210E-01
VELOCITY                               :            0.898E-05   0.107E-03
ACCLERATION                            :           -0.129E-05  -0.691E-06
KINETIC ENERGY                         :            0.528E-03
POTENTIAL ENERGY                       :           -0.497E-01
TOTAL ENERGY                           :           -0.491E-01
INST. TEMPERATURE                      :            0.167E+03

ITERATION                              :                106
TIME                                   :            0.742E+03
POSITION                               :            0.260E-01   0.218E-01
VELOCITY                               :           -0.130E-07   0.102E-03
ACCLERATION                            :           -0.128E-05  -0.733E-06
KINETIC ENERGY                         :            0.476E-03
POTENTIAL ENERGY                       :           -0.496E-01
TOTAL ENERGY                           :           -0.491E-01
INST. TEMPERATURE                      :            0.150E+03

ITERATION                              :                107
TIME                                   :            0.749E+03
POSITION                               :            0.259E-01   0.225E-01
VELOCITY                               :           -0.896E-05   0.970E-04
ACCLERATION                            :           -0.127E-05  -0.773E-06
KINETIC ENERGY                         :            0.432E-03
POTENTIAL ENERGY                       :           -0.496E-01
TOTAL ENERGY                           :           -0.491E-01
INST. TEMPERATURE                      :            0.136E+03

ITERATION                              :                108
TIME                                   :            0.756E+03
POSITION                               :            0.259E-01   0.231E-01
VELOCITY                               :           -0.178E-04   0.915E-04
ACCLERATION                            :           -0.126E-05  -0.810E-06
KINETIC ENERGY                         :            0.396E-03
POTENTIAL ENERGY                       :           -0.495E-01
TOTAL ENERGY                           :           -0.491E-01
INST. TEMPERATURE                      :            0.125E+03

ITERATION                              :                109
TIME                                   :            0.763E+03
POSITION                               :            0.257E-01   0.238E-01
VELOCITY                               :           -0.266E-04   0.857E-04
ACCLERATION                            :           -0.124E-05  -0.845E-06
KINETIC ENERGY                         :            0.367E-03
POTENTIAL ENERGY                       :           -0.495E-01
TOTAL ENERGY                           :           -0.491E-01
INST. TEMPERATURE                      :            0.116E+03

ITERATION                              :                110
TIME                                   :            0.770E+03
POSITION                               :            0.255E-01   0.243E-01
VELOCITY                               :           -0.584E-04   0.132E-03
ACCLERATION                            :           -0.123E-05  -0.878E-06
KINETIC ENERGY                         :            0.346E-03
POTENTIAL ENERGY                       :           -0.495E-01
TOTAL ENERGY                           :           -0.491E-01
INST. TEMPERATURE                      :            0.109E+03

ITERATION                              :                111
TIME                                   :            0.777E+03
POSITION                               :            0.250E-01   0.252E-01
VELOCITY                               :           -0.669E-04   0.126E-03
ACCLERATION                            :           -0.119E-05  -0.929E-06
KINETIC ENERGY                         :            0.924E-03
POTENTIAL ENERGY                       :           -0.494E-01
TOTAL ENERGY                           :           -0.485E-01
INST. TEMPERATURE                      :            0.292E+03

ITERATION                              :                112
TIME                                   :            0.784E+03
POSITION                               :            0.245E-01   0.261E-01
VELOCITY                               :           -0.751E-04   0.119E-03
ACCLERATION                            :           -0.115E-05  -0.977E-06
KINETIC ENERGY                         :            0.903E-03
POTENTIAL ENERGY                       :           -0.494E-01
TOTAL ENERGY                           :           -0.485E-01
INST. TEMPERATURE                      :            0.285E+03

ITERATION                              :                113
TIME                                   :            0.791E+03
POSITION                               :            0.240E-01   0.269E-01
VELOCITY                               :           -0.829E-04   0.112E-03
ACCLERATION                            :           -0.110E-05  -0.102E-05
KINETIC ENERGY                         :            0.886E-03
POTENTIAL ENERGY                       :           -0.494E-01
TOTAL ENERGY                           :           -0.485E-01
INST. TEMPERATURE                      :            0.280E+03

ITERATION                              :                114
TIME                                   :            0.798E+03
POSITION                               :            0.234E-01   0.277E-01
VELOCITY                               :           -0.905E-04   0.105E-03
ACCLERATION                            :           -0.106E-05  -0.106E-05
KINETIC ENERGY                         :            0.873E-03
POTENTIAL ENERGY                       :           -0.494E-01
TOTAL ENERGY                           :           -0.485E-01
INST. TEMPERATURE                      :            0.276E+03

ITERATION                              :                115
TIME                                   :            0.805E+03
POSITION                               :            0.227E-01   0.284E-01
VELOCITY                               :           -0.977E-04   0.972E-04
ACCLERATION                            :           -0.100E-05  -0.110E-05
KINETIC ENERGY                         :            0.865E-03
POTENTIAL ENERGY                       :           -0.494E-01
TOTAL ENERGY                           :           -0.485E-01
INST. TEMPERATURE                      :            0.273E+03

ITERATION                              :                116
TIME                                   :            0.812E+03
POSITION                               :            0.220E-01   0.290E-01
VELOCITY                               :           -0.105E-03   0.894E-04
ACCLERATION                            :           -0.950E-06  -0.114E-05
KINETIC ENERGY                         :            0.861E-03
POTENTIAL ENERGY                       :           -0.494E-01
TOTAL ENERGY                           :           -0.485E-01
INST. TEMPERATURE                      :            0.272E+03

ITERATION                              :                117
TIME                                   :            0.819E+03
POSITION                               :            0.213E-01   0.296E-01
VELOCITY                               :           -0.111E-03   0.813E-04
ACCLERATION                            :           -0.892E-06  -0.117E-05
KINETIC ENERGY                         :            0.862E-03
POTENTIAL ENERGY                       :           -0.494E-01
TOTAL ENERGY                           :           -0.485E-01
INST. TEMPERATURE                      :            0.272E+03

ITERATION                              :                118
TIME                                   :            0.826E+03
POSITION                               :            0.205E-01   0.302E-01
VELOCITY                               :           -0.117E-03   0.729E-04
ACCLERATION                            :           -0.832E-06  -0.120E-05
KINETIC ENERGY                         :            0.866E-03
POTENTIAL ENERGY                       :           -0.494E-01
TOTAL ENERGY                           :           -0.485E-01
INST. TEMPERATURE                      :            0.273E+03

ITERATION                              :                119
TIME                                   :            0.833E+03
POSITION                               :            0.196E-01   0.306E-01
VELOCITY                               :           -0.123E-03   0.644E-04
ACCLERATION                            :           -0.768E-06  -0.123E-05
KINETIC ENERGY                         :            0.874E-03
POTENTIAL ENERGY                       :           -0.494E-01
TOTAL ENERGY                           :           -0.485E-01
INST. TEMPERATURE                      :            0.276E+03

ITERATION                              :                120
TIME                                   :            0.840E+03
POSITION                               :            0.187E-01   0.311E-01
VELOCITY                               :           -0.128E-03   0.557E-04
ACCLERATION                            :           -0.702E-06  -0.126E-05
KINETIC ENERGY                         :            0.885E-03
POTENTIAL ENERGY                       :           -0.494E-01
TOTAL ENERGY                           :           -0.485E-01
INST. TEMPERATURE                      :            0.279E+03

ITERATION                              :                121
TIME                                   :            0.847E+03
POSITION                               :            0.178E-01   0.314E-01
VELOCITY                               :            0.137E-03   0.453E-04
ACCLERATION                            :           -0.633E-06  -0.128E-05
KINETIC ENERGY                         :            0.899E-03
POTENTIAL ENERGY                       :           -0.494E-01
TOTAL ENERGY                           :           -0.485E-01
INST. TEMPERATURE                      :            0.284E+03

ITERATION                              :                122
TIME                                   :            0.854E+03
POSITION                               :            0.188E-01   0.317E-01
VELOCITY                               :            0.132E-03   0.363E-04
ACCLERATION                            :           -0.698E-06  -0.128E-05
KINETIC ENERGY                         :            0.859E-03
POTENTIAL ENERGY                       :           -0.493E-01
TOTAL ENERGY                           :           -0.485E-01
INST. TEMPERATURE                      :            0.271E+03

ITERATION                              :                123
TIME                                   :            0.861E+03
POSITION                               :            0.197E-01   0.319E-01
VELOCITY                               :            0.127E-03   0.273E-04
ACCLERATION                            :           -0.760E-06  -0.128E-05
KINETIC ENERGY                         :            0.773E-03
POTENTIAL ENERGY                       :           -0.492E-01
TOTAL ENERGY                           :           -0.485E-01
INST. TEMPERATURE                      :            0.244E+03

ITERATION                              :                124
TIME                                   :            0.868E+03
POSITION                               :            0.206E-01   0.321E-01
VELOCITY                               :            0.122E-03   0.184E-04
ACCLERATION                            :           -0.819E-06  -0.128E-05
KINETIC ENERGY                         :            0.692E-03
POTENTIAL ENERGY                       :           -0.492E-01
TOTAL ENERGY                           :           -0.485E-01
INST. TEMPERATURE                      :            0.218E+03

ITERATION                              :                125
TIME                                   :            0.875E+03
POSITION                               :            0.214E-01   0.322E-01
VELOCITY                               :            0.116E-03   0.942E-05
ACCLERATION                            :           -0.875E-06  -0.127E-05
KINETIC ENERGY                         :            0.616E-03
POTENTIAL ENERGY                       :           -0.491E-01
TOTAL ENERGY                           :           -0.485E-01
INST. TEMPERATURE                      :            0.195E+03

ITERATION                              :                126
TIME                                   :            0.882E+03
POSITION                               :            0.222E-01   0.322E-01
VELOCITY                               :            0.110E-03   0.523E-06
ACCLERATION                            :           -0.927E-06  -0.127E-05
KINETIC ENERGY                         :            0.547E-03
POTENTIAL ENERGY                       :           -0.490E-01
TOTAL ENERGY                           :           -0.485E-01
INST. TEMPERATURE                      :            0.173E+03

ITERATION                              :                127
TIME                                   :            0.889E+03
POSITION                               :            0.229E-01   0.322E-01
VELOCITY                               :            0.103E-03  -0.832E-05
ACCLERATION                            :           -0.977E-06  -0.126E-05
KINETIC ENERGY                         :            0.486E-03
POTENTIAL ENERGY                       :           -0.490E-01
TOTAL ENERGY                           :           -0.485E-01
INST. TEMPERATURE                      :            0.153E+03

ITERATION                              :                128
TIME                                   :            0.896E+03
POSITION                               :            0.236E-01   0.321E-01
VELOCITY                               :            0.959E-04  -0.171E-04
ACCLERATION                            :           -0.102E-05  -0.125E-05
KINETIC ENERGY                         :            0.433E-03
POTENTIAL ENERGY                       :           -0.489E-01
TOTAL ENERGY                           :           -0.485E-01
INST. TEMPERATURE                      :            0.137E+03

ITERATION                              :                129
TIME                                   :            0.903E+03
POSITION                               :            0.243E-01   0.320E-01
VELOCITY                               :            0.886E-04  -0.258E-04
ACCLERATION                            :           -0.107E-05  -0.123E-05
KINETIC ENERGY                         :            0.388E-03
POTENTIAL ENERGY                       :           -0.489E-01
TOTAL ENERGY                           :           -0.485E-01
INST. TEMPERATURE                      :            0.123E+03

ITERATION                              :                130
TIME                                   :            0.910E+03
POSITION                               :            0.249E-01   0.318E-01
VELOCITY                               :            0.810E-04  -0.344E-04
ACCLERATION                            :           -0.111E-05  -0.122E-05
KINETIC ENERGY                         :            0.353E-03
POTENTIAL ENERGY                       :           -0.488E-01
TOTAL ENERGY                           :           -0.485E-01
INST. TEMPERATURE                      :            0.111E+03

ITERATION                              :                131
[...]
ACCLERATION                            :           -0.463E-07   0.697E-06
KINETIC ENERGY                         :            0.135E-02
POTENTIAL ENERGY                       :           -0.493E-01
TOTAL ENERGY                           :           -0.480E-01
INST. TEMPERATURE                      :            0.425E+03

ITERATION                              :                969
TIME                                   :            0.678E+04
POSITION                               :           -0.231E-02   0.670E-02
VELOCITY                               :           -0.144E-03  -0.165E-04
ACCLERATION                            :           -0.334E-06   0.547E-06
KINETIC ENERGY                         :            0.960E-03
POTENTIAL ENERGY                       :           -0.493E-01
TOTAL ENERGY                           :           -0.484E-01
INST. TEMPERATURE                      :            0.303E+03

ITERATION                              :                970
TIME                                   :            0.679E+04
POSITION                               :           -0.333E-02   0.660E-02
VELOCITY                               :           -0.147E-03  -0.131E-04
ACCLERATION                            :           -0.521E-06   0.415E-06
KINETIC ENERGY                         :            0.995E-03
POTENTIAL ENERGY                       :           -0.494E-01
TOTAL ENERGY                           :           -0.484E-01
INST. TEMPERATURE                      :            0.314E+03

ITERATION                              :                971
TIME                                   :            0.680E+04
POSITION                               :           -0.438E-02   0.651E-02
VELOCITY                               :           -0.151E-03  -0.106E-04
ACCLERATION                            :           -0.585E-06   0.304E-06
KINETIC ENERGY                         :            0.105E-02
POTENTIAL ENERGY                       :           -0.494E-01
TOTAL ENERGY                           :           -0.484E-01
INST. TEMPERATURE                      :            0.330E+03

ITERATION                              :                972
TIME                                   :            0.680E+04
POSITION                               :           -0.545E-02   0.645E-02
VELOCITY                               :           -0.155E-03  -0.879E-05
ACCLERATION                            :           -0.512E-06   0.217E-06
KINETIC ENERGY                         :            0.110E-02
POTENTIAL ENERGY                       :           -0.495E-01
TOTAL ENERGY                           :           -0.484E-01
INST. TEMPERATURE                      :            0.346E+03

ITERATION                              :                973
TIME                                   :            0.681E+04
POSITION                               :           -0.655E-02   0.639E-02
VELOCITY                               :           -0.158E-03  -0.750E-05
ACCLERATION                            :           -0.312E-06   0.154E-06
KINETIC ENERGY                         :            0.114E-02
POTENTIAL ENERGY                       :           -0.495E-01
TOTAL ENERGY                           :           -0.484E-01
INST. TEMPERATURE                      :            0.359E+03

ITERATION                              :                974
TIME                                   :            0.682E+04
POSITION                               :           -0.766E-02   0.634E-02
VELOCITY                               :           -0.159E-03  -0.657E-05
ACCLERATION                            :           -0.122E-07   0.112E-06
KINETIC ENERGY                         :            0.115E-02
POTENTIAL ENERGY                       :           -0.495E-01
TOTAL ENERGY                           :           -0.484E-01
INST. TEMPERATURE                      :            0.364E+03

ITERATION                              :                975
TIME                                   :            0.682E+04
POSITION                               :           -0.877E-02   0.630E-02
VELOCITY                               :           -0.158E-03  -0.586E-05
ACCLERATION                            :            0.341E-06   0.889E-07
KINETIC ENERGY                         :            0.114E-02
POTENTIAL ENERGY                       :           -0.495E-01
TOTAL ENERGY                           :           -0.484E-01
INST. TEMPERATURE                      :            0.359E+03

ITERATION                              :                976
TIME                                   :            0.683E+04
POSITION                               :           -0.987E-02   0.626E-02
VELOCITY                               :           -0.154E-03  -0.527E-05
ACCLERATION                            :            0.699E-06   0.798E-07
KINETIC ENERGY                         :            0.108E-02
POTENTIAL ENERGY                       :           -0.495E-01
TOTAL ENERGY                           :           -0.484E-01
INST. TEMPERATURE                      :            0.342E+03

ITERATION                              :                977
TIME                                   :            0.684E+04
POSITION                               :           -0.109E-01   0.623E-02
VELOCITY                               :           -0.148E-03  -0.471E-05
ACCLERATION                            :            0.103E-05   0.810E-07
KINETIC ENERGY                         :            0.100E-02
POTENTIAL ENERGY                       :           -0.494E-01
TOTAL ENERGY                           :           -0.484E-01
INST. TEMPERATURE                      :            0.316E+03

ITERATION                              :                978
TIME                                   :            0.685E+04
POSITION                               :           -0.119E-01   0.619E-02
VELOCITY                               :           -0.140E-03  -0.411E-05
ACCLERATION                            :            0.130E-05   0.891E-07
KINETIC ENERGY                         :            0.893E-03
POTENTIAL ENERGY                       :           -0.493E-01
TOTAL ENERGY                           :           -0.484E-01
INST. TEMPERATURE                      :            0.282E+03

ITERATION                              :                979
TIME                                   :            0.685E+04
POSITION                               :           -0.129E-01   0.617E-02
VELOCITY                               :           -0.128E-03   0.671E-04
ACCLERATION                            :            0.153E-05   0.101E-06
KINETIC ENERGY                         :            0.771E-03
POTENTIAL ENERGY                       :           -0.491E-01
TOTAL ENERGY                           :           -0.484E-01
INST. TEMPERATURE                      :            0.243E+03

ITERATION                              :                980
TIME                                   :            0.686E+04
POSITION                               :           -0.137E-01   0.664E-02
VELOCITY                               :           -0.117E-03   0.676E-04
ACCLERATION                            :            0.170E-05   0.447E-07
KINETIC ENERGY                         :            0.827E-03
POTENTIAL ENERGY                       :           -0.490E-01
TOTAL ENERGY                           :           -0.482E-01
INST. TEMPERATURE                      :            0.261E+03

ITERATION                              :                981
TIME                                   :            0.687E+04
POSITION                               :           -0.145E-01   0.711E-02
VELOCITY                               :           -0.104E-03   0.677E-04
ACCLERATION                            :            0.182E-05  -0.105E-07
KINETIC ENERGY                         :            0.704E-03
POTENTIAL ENERGY                       :           -0.489E-01
TOTAL ENERGY                           :           -0.482E-01
INST. TEMPERATURE                      :            0.222E+03

ITERATION                              :                982
TIME                                   :            0.687E+04
POSITION                               :           -0.152E-01   0.759E-02
VELOCITY                               :           -0.913E-04   0.674E-04
ACCLERATION                            :            0.191E-05  -0.646E-07
KINETIC ENERGY                         :            0.587E-03
POTENTIAL ENERGY                       :           -0.488E-01
TOTAL ENERGY                           :           -0.482E-01
INST. TEMPERATURE                      :            0.185E+03

ITERATION                              :                983
TIME                                   :            0.688E+04
POSITION                               :           -0.158E-01   0.806E-02
VELOCITY                               :           -0.777E-04   0.668E-04
ACCLERATION                            :            0.197E-05  -0.118E-06
KINETIC ENERGY                         :            0.478E-03
POTENTIAL ENERGY                       :           -0.487E-01
TOTAL ENERGY                           :           -0.482E-01
INST. TEMPERATURE                      :            0.151E+03

ITERATION                              :                984
TIME                                   :            0.689E+04
POSITION                               :           -0.163E-01   0.852E-02
VELOCITY                               :           -0.637E-04   0.658E-04
ACCLERATION                            :            0.201E-05  -0.171E-06
KINETIC ENERGY                         :            0.382E-03
POTENTIAL ENERGY                       :           -0.486E-01
TOTAL ENERGY                           :           -0.482E-01
INST. TEMPERATURE                      :            0.121E+03

ITERATION                              :                985
TIME                                   :            0.690E+04
POSITION                               :           -0.167E-01   0.898E-02
VELOCITY                               :           -0.495E-04   0.644E-04
ACCLERATION                            :            0.204E-05  -0.225E-06
KINETIC ENERGY                         :            0.301E-03
POTENTIAL ENERGY                       :           -0.485E-01
TOTAL ENERGY                           :           -0.482E-01
INST. TEMPERATURE                      :            0.950E+02

ITERATION                              :                986
TIME                                   :            0.690E+04
POSITION                               :           -0.170E-01   0.942E-02
VELOCITY                               :           -0.352E-04   0.626E-04
ACCLERATION                            :            0.205E-05  -0.280E-06
KINETIC ENERGY                         :            0.235E-03
POTENTIAL ENERGY                       :           -0.484E-01
TOTAL ENERGY                           :           -0.482E-01
INST. TEMPERATURE                      :            0.743E+02

ITERATION                              :                987
TIME                                   :            0.691E+04
POSITION                               :           -0.172E-01   0.986E-02
VELOCITY                               :           -0.209E-04   0.605E-04
ACCLERATION                            :            0.204E-05  -0.338E-06
KINETIC ENERGY                         :            0.186E-03
POTENTIAL ENERGY                       :           -0.484E-01
TOTAL ENERGY                           :           -0.482E-01
INST. TEMPERATURE                      :            0.589E+02

ITERATION                              :                988
TIME                                   :            0.692E+04
POSITION                               :           -0.173E-01   0.103E-01
VELOCITY                               :           -0.665E-05   0.579E-04
ACCLERATION                            :            0.203E-05  -0.399E-06
KINETIC ENERGY                         :            0.155E-03
POTENTIAL ENERGY                       :           -0.483E-01
TOTAL ENERGY                           :           -0.482E-01
INST. TEMPERATURE                      :            0.488E+02

ITERATION                              :                989
TIME                                   :            0.692E+04
POSITION                               :           -0.173E-01   0.107E-01
VELOCITY                               :            0.742E-05   0.549E-04
ACCLERATION                            :            0.199E-05  -0.466E-06
KINETIC ENERGY                         :            0.140E-03
POTENTIAL ENERGY                       :           -0.483E-01
TOTAL ENERGY                           :           -0.482E-01
INST. TEMPERATURE                      :            0.441E+02

ITERATION                              :                990
TIME                                   :            0.693E+04
POSITION                               :           -0.172E-01   0.110E-01
VELOCITY                               :            0.552E-04   0.133E-03
ACCLERATION                            :            0.195E-05  -0.539E-06
KINETIC ENERGY                         :            0.141E-03
POTENTIAL ENERGY                       :           -0.483E-01
TOTAL ENERGY                           :           -0.482E-01
INST. TEMPERATURE                      :            0.444E+02

ITERATION                              :                991
TIME                                   :            0.694E+04
POSITION                               :           -0.167E-01   0.120E-01
VELOCITY                               :            0.683E-04   0.129E-03
ACCLERATION                            :            0.180E-05  -0.747E-06
KINETIC ENERGY                         :            0.970E-03
POTENTIAL ENERGY                       :           -0.484E-01
TOTAL ENERGY                           :           -0.474E-01
INST. TEMPERATURE                      :            0.306E+03

ITERATION                              :                992
TIME                                   :            0.694E+04
POSITION                               :           -0.162E-01   0.128E-01
VELOCITY                               :            0.803E-04   0.123E-03
ACCLERATION                            :            0.163E-05  -0.970E-06
KINETIC ENERGY                         :            0.983E-03
POTENTIAL ENERGY                       :           -0.484E-01
TOTAL ENERGY                           :           -0.474E-01
INST. TEMPERATURE                      :            0.310E+03

ITERATION                              :                993
TIME                                   :            0.695E+04
POSITION                               :           -0.156E-01   0.137E-01
VELOCITY                               :            0.912E-04   0.115E-03
ACCLERATION                            :            0.146E-05  -0.119E-05
KINETIC ENERGY                         :            0.985E-03
POTENTIAL ENERGY                       :           -0.484E-01
TOTAL ENERGY                           :           -0.474E-01
INST. TEMPERATURE                      :            0.311E+03

ITERATION                              :                994
TIME                                   :            0.696E+04
POSITION                               :           -0.149E-01   0.145E-01
VELOCITY                               :            0.101E-03   0.106E-03
ACCLERATION                            :            0.132E-05  -0.139E-05
KINETIC ENERGY                         :            0.979E-03
POTENTIAL ENERGY                       :           -0.484E-01
TOTAL ENERGY                           :           -0.474E-01
INST. TEMPERATURE                      :            0.309E+03

ITERATION                              :                995
TIME                                   :            0.696E+04
POSITION                               :           -0.142E-01   0.152E-01
VELOCITY                               :            0.110E-03   0.962E-04
ACCLERATION                            :            0.123E-05  -0.153E-05
KINETIC ENERGY                         :            0.971E-03
POTENTIAL ENERGY                       :           -0.484E-01
TOTAL ENERGY                           :           -0.474E-01
INST. TEMPERATURE                      :            0.307E+03

ITERATION                              :                996
TIME                                   :            0.697E+04
POSITION                               :           -0.134E-01   0.158E-01
VELOCITY                               :            0.118E-03   0.851E-04
ACCLERATION                            :            0.123E-05  -0.162E-05
KINETIC ENERGY                         :            0.969E-03
POTENTIAL ENERGY                       :           -0.484E-01
TOTAL ENERGY                           :           -0.474E-01
INST. TEMPERATURE                      :            0.306E+03

ITERATION                              :                997
TIME                                   :            0.698E+04
POSITION                               :           -0.125E-01   0.164E-01
VELOCITY                               :            0.127E-03   0.738E-04
ACCLERATION                            :            0.132E-05  -0.163E-05
KINETIC ENERGY                         :            0.987E-03
POTENTIAL ENERGY                       :           -0.484E-01
TOTAL ENERGY                           :           -0.474E-01
INST. TEMPERATURE                      :            0.312E+03

ITERATION                              :                998
TIME                                   :            0.699E+04
POSITION                               :           -0.116E-01   0.168E-01
VELOCITY                               :            0.137E-03   0.626E-04
ACCLERATION                            :            0.149E-05  -0.156E-05
KINETIC ENERGY                         :            0.104E-02
POTENTIAL ENERGY                       :           -0.484E-01
TOTAL ENERGY                           :           -0.474E-01
INST. TEMPERATURE                      :            0.327E+03

ITERATION                              :                999
TIME                                   :            0.699E+04
POSITION                               :           -0.106E-01   0.172E-01
VELOCITY                               :            0.148E-03   0.521E-04
ACCLERATION                            :            0.172E-05  -0.144E-05
KINETIC ENERGY                         :            0.113E-02
POTENTIAL ENERGY                       :           -0.485E-01
TOTAL ENERGY                           :           -0.474E-01
INST. TEMPERATURE                      :            0.356E+03

ITERATION                              :               1000
TIME                                   :            0.700E+04
POSITION                               :           -0.955E-02   0.176E-01
VELOCITY                               :            0.161E-03   0.427E-04
ACCLERATION                            :            0.195E-05  -0.125E-05
KINETIC ENERGY                         :            0.127E-02
POTENTIAL ENERGY                       :           -0.486E-01
TOTAL ENERGY                           :           -0.474E-01
INST. TEMPERATURE                      :            0.400E+03

 *************************************************
 *                 TOYCODE-1.0                   *
 *                                               *
 *      A MD PLATFORM FOR TESTING ENHANCED       *
 *      SAMPLING ALGORITHMS.                     *
 *                                               *
 *      DEVELOPED BY VENKAT KAPIL                *
 *      CONTACT : venkat@iitk.ac.in              *
 *                                               *
 *      COPYRIGHT (C) 2014 VENKAT KAPIL          *
 *      SOME RIGHTS RESERVED.                    *
 *                                               *
 !************************************************

